version 2
run WithBeaconing-0-20220131-09:21:47-18026
attr configname WithBeaconing
attr datetime 20220131-09:21:47
attr experiment WithBeaconing
attr inifile omnetpp.ini
attr iterationvars ""
attr iterationvarsf ""
attr measurement ""
attr network veins_manhattan.src.Scenario
attr processid 18026
attr repetition 0
attr replication #0
attr resultdir results
attr runnumber 0
attr seedset 0
param *.rsu[*].appl.sendBeacons true
param *.node[*].appl.sendBeacons true
param **.debug false
param **.coreDebug false
param *.playgroundSizeX 6000m
param *.playgroundSizeY 6000m
param *.playgroundSizeZ 5m
param *.annotations.draw true
param *.manager.updateInterval 1s
param *.manager.host "\"localhost\""
param *.manager.port 9999
param *.manager.moduleType "\"veins_manhattan.src.car.MyCar\""
param *.manager.autoShutdown true
param *.manager.launchConfig "xmldoc(\"demo.launchd.xml\")"
param *.rsu[0].mobility.x 500
param *.rsu[0].mobility.y 500
param *.rsu[0].mobility.z 3
param *.rsu[*].applType "\"veins_manhattan.src.MyRSUApp\""
param *.rsu[*].appl.windowTime 15.0
param *.rsu[*].appl.headerLength "80 bit"
param *.rsu[*].appl.sendBeacons true
param *.rsu[*].appl.dataOnSch true
param *.rsu[*].appl.beaconInterval 1s
param *.rsu[*].appl.beaconUserPriority 7
param *.rsu[*].appl.dataUserPriority 5
param *.connectionManager.sendDirect true
param *.connectionManager.maxInterfDist 2600m
param *.connectionManager.drawMaxIntfDist false
param *.**.nic.mac1609_4.useServiceChannel false
param *.**.nic.mac1609_4.txPower 20mW
param *.**.nic.mac1609_4.bitrate 6Mbps
param *.**.nic.phy80211p.sensitivity -89dBm
param *.**.nic.phy80211p.useThermalNoise true
param *.**.nic.phy80211p.thermalNoise -110dBm
param *.**.nic.phy80211p.decider "xmldoc(\"config.xml\")"
param *.**.nic.phy80211p.analogueModels "xmldoc(\"config.xml\")"
param *.**.nic.phy80211p.usePropagationDelay true
param *.node[*].applType "\"veins_manhattan.src.MyApplicaton\""
param *.node[*].appl.headerLength "80 bit"
param *.node[*].appl.sendBeacons true
param *.node[*].appl.dataOnSch false
param *.node[*].appl.beaconInterval 1s
param *.node[*].veinsmobilityType.debug true
param *.node[*].veinsmobility.x 3000
param *.node[*].veinsmobility.y 3000
param *.node[*].veinsmobility.z 1.895

vector 0 Scenario.node[0].veinsmobility posx ETV
vector 1 Scenario.node[0].veinsmobility posy ETV
vector 2 Scenario.node[1].veinsmobility posx ETV
vector 3 Scenario.node[1].veinsmobility posy ETV
vector 4 Scenario.node[0].veinsmobility speed ETV
vector 5 Scenario.node[0].veinsmobility acceleration ETV
vector 6 Scenario.node[0].veinsmobility co2emission ETV
vector 7 Scenario.node[1].veinsmobility speed ETV
vector 8 Scenario.node[2].veinsmobility posx ETV
vector 9 Scenario.node[2].veinsmobility posy ETV
vector 10 Scenario.node[1].veinsmobility acceleration ETV
vector 11 Scenario.node[1].veinsmobility co2emission ETV
vector 12 Scenario.node[3].veinsmobility posx ETV
vector 13 Scenario.node[3].veinsmobility posy ETV
vector 14 Scenario.node[2].veinsmobility speed ETV
vector 15 Scenario.node[2].veinsmobility acceleration ETV
vector 16 Scenario.node[2].veinsmobility co2emission ETV
vector 17 Scenario.node[3].veinsmobility speed ETV
vector 18 Scenario.node[4].veinsmobility posx ETV
vector 19 Scenario.node[4].veinsmobility posy ETV
vector 20 Scenario.node[3].veinsmobility acceleration ETV
vector 21 Scenario.node[3].veinsmobility co2emission ETV
vector 22 Scenario.node[4].veinsmobility speed ETV
vector 23 Scenario.node[4].veinsmobility acceleration ETV
vector 24 Scenario.node[4].veinsmobility co2emission ETV
vector 25 Scenario.node[5].veinsmobility posx ETV
vector 26 Scenario.node[5].veinsmobility posy ETV
vector 27 Scenario.node[6].veinsmobility posx ETV
vector 28 Scenario.node[6].veinsmobility posy ETV
vector 29 Scenario.node[5].veinsmobility speed ETV
vector 30 Scenario.node[7].veinsmobility posx ETV
vector 31 Scenario.node[7].veinsmobility posy ETV
vector 32 Scenario.node[5].veinsmobility acceleration ETV
vector 33 Scenario.node[5].veinsmobility co2emission ETV
vector 34 Scenario.node[6].veinsmobility speed ETV
vector 35 Scenario.node[8].veinsmobility posx ETV
vector 36 Scenario.node[8].veinsmobility posy ETV
vector 37 Scenario.node[6].veinsmobility acceleration ETV
vector 38 Scenario.node[6].veinsmobility co2emission ETV
vector 39 Scenario.node[7].veinsmobility speed ETV
vector 40 Scenario.node[9].veinsmobility posx ETV
vector 41 Scenario.node[9].veinsmobility posy ETV
vector 42 Scenario.node[7].veinsmobility acceleration ETV
vector 43 Scenario.node[7].veinsmobility co2emission ETV
vector 44 Scenario.node[8].veinsmobility speed ETV
vector 45 Scenario.node[10].veinsmobility posx ETV
vector 46 Scenario.node[10].veinsmobility posy ETV
vector 47 Scenario.node[8].veinsmobility acceleration ETV
vector 48 Scenario.node[8].veinsmobility co2emission ETV
vector 49 Scenario.node[9].veinsmobility speed ETV
vector 50 Scenario.node[11].veinsmobility posx ETV
vector 51 Scenario.node[11].veinsmobility posy ETV
vector 52 Scenario.node[9].veinsmobility acceleration ETV
vector 53 Scenario.node[9].veinsmobility co2emission ETV
vector 54 Scenario.node[10].veinsmobility speed ETV
vector 55 Scenario.node[12].veinsmobility posx ETV
vector 56 Scenario.node[12].veinsmobility posy ETV
vector 57 Scenario.node[10].veinsmobility acceleration ETV
vector 58 Scenario.node[10].veinsmobility co2emission ETV
vector 59 Scenario.node[11].veinsmobility speed ETV
vector 60 Scenario.node[13].veinsmobility posx ETV
vector 61 Scenario.node[13].veinsmobility posy ETV
vector 62 Scenario.node[11].veinsmobility acceleration ETV
vector 63 Scenario.node[11].veinsmobility co2emission ETV
vector 64 Scenario.node[12].veinsmobility speed ETV
vector 65 Scenario.node[14].veinsmobility posx ETV
vector 66 Scenario.node[14].veinsmobility posy ETV
vector 67 Scenario.node[12].veinsmobility acceleration ETV
vector 68 Scenario.node[12].veinsmobility co2emission ETV
vector 69 Scenario.node[13].veinsmobility speed ETV
vector 70 Scenario.node[15].veinsmobility posx ETV
vector 71 Scenario.node[15].veinsmobility posy ETV
vector 72 Scenario.node[13].veinsmobility acceleration ETV
vector 73 Scenario.node[13].veinsmobility co2emission ETV
vector 74 Scenario.node[14].veinsmobility speed ETV
vector 75 Scenario.node[16].veinsmobility posx ETV
vector 76 Scenario.node[16].veinsmobility posy ETV
vector 77 Scenario.node[14].veinsmobility acceleration ETV
vector 78 Scenario.node[14].veinsmobility co2emission ETV
vector 79 Scenario.node[15].veinsmobility speed ETV
vector 80 Scenario.node[17].veinsmobility posx ETV
vector 81 Scenario.node[17].veinsmobility posy ETV
vector 82 Scenario.node[15].veinsmobility acceleration ETV
vector 83 Scenario.node[15].veinsmobility co2emission ETV
vector 84 Scenario.node[16].veinsmobility speed ETV
vector 85 Scenario.node[18].veinsmobility posx ETV
vector 86 Scenario.node[18].veinsmobility posy ETV
vector 87 Scenario.node[16].veinsmobility acceleration ETV
vector 88 Scenario.node[16].veinsmobility co2emission ETV
vector 89 Scenario.node[17].veinsmobility speed ETV
vector 90 Scenario.node[17].veinsmobility acceleration ETV
vector 91 Scenario.node[17].veinsmobility co2emission ETV
vector 92 Scenario.node[18].veinsmobility speed ETV
vector 93 Scenario.node[19].veinsmobility posx ETV
vector 94 Scenario.node[19].veinsmobility posy ETV
vector 95 Scenario.node[18].veinsmobility acceleration ETV
vector 96 Scenario.node[18].veinsmobility co2emission ETV
vector 97 Scenario.node[19].veinsmobility speed ETV
vector 98 Scenario.node[20].veinsmobility posx ETV
vector 99 Scenario.node[20].veinsmobility posy ETV
vector 100 Scenario.node[21].veinsmobility posx ETV
vector 101 Scenario.node[21].veinsmobility posy ETV
vector 102 Scenario.node[19].veinsmobility acceleration ETV
vector 103 Scenario.node[19].veinsmobility co2emission ETV
vector 104 Scenario.node[22].veinsmobility posx ETV
vector 105 Scenario.node[22].veinsmobility posy ETV
vector 106 Scenario.node[20].veinsmobility speed ETV
vector 107 Scenario.node[21].veinsmobility speed ETV
vector 108 Scenario.node[23].veinsmobility posx ETV
vector 109 Scenario.node[23].veinsmobility posy ETV
vector 110 Scenario.node[20].veinsmobility acceleration ETV
vector 111 Scenario.node[20].veinsmobility co2emission ETV
vector 112 Scenario.node[21].veinsmobility acceleration ETV
vector 113 Scenario.node[21].veinsmobility co2emission ETV
vector 114 Scenario.node[22].veinsmobility speed ETV
vector 115 Scenario.node[24].veinsmobility posx ETV
vector 116 Scenario.node[24].veinsmobility posy ETV
vector 117 Scenario.node[22].veinsmobility acceleration ETV
vector 118 Scenario.node[22].veinsmobility co2emission ETV
vector 119 Scenario.node[23].veinsmobility speed ETV
vector 120 Scenario.node[25].veinsmobility posx ETV
vector 121 Scenario.node[25].veinsmobility posy ETV
vector 122 Scenario.node[23].veinsmobility acceleration ETV
vector 123 Scenario.node[23].veinsmobility co2emission ETV
vector 124 Scenario.node[24].veinsmobility speed ETV
vector 125 Scenario.node[26].veinsmobility posx ETV
vector 126 Scenario.node[26].veinsmobility posy ETV
vector 127 Scenario.node[24].veinsmobility acceleration ETV
vector 128 Scenario.node[24].veinsmobility co2emission ETV
vector 129 Scenario.node[25].veinsmobility speed ETV
vector 130 Scenario.node[27].veinsmobility posx ETV
vector 131 Scenario.node[27].veinsmobility posy ETV
vector 132 Scenario.node[25].veinsmobility acceleration ETV
vector 133 Scenario.node[25].veinsmobility co2emission ETV
vector 134 Scenario.node[26].veinsmobility speed ETV
vector 135 Scenario.node[28].veinsmobility posx ETV
vector 136 Scenario.node[28].veinsmobility posy ETV
vector 137 Scenario.node[26].veinsmobility acceleration ETV
vector 138 Scenario.node[26].veinsmobility co2emission ETV
vector 139 Scenario.node[27].veinsmobility speed ETV
vector 140 Scenario.node[27].veinsmobility acceleration ETV
vector 141 Scenario.node[27].veinsmobility co2emission ETV
vector 142 Scenario.node[28].veinsmobility speed ETV
vector 143 Scenario.node[29].veinsmobility posx ETV
vector 144 Scenario.node[29].veinsmobility posy ETV
vector 145 Scenario.node[28].veinsmobility acceleration ETV
vector 146 Scenario.node[28].veinsmobility co2emission ETV
vector 147 Scenario.node[30].veinsmobility posx ETV
vector 148 Scenario.node[30].veinsmobility posy ETV
vector 149 Scenario.node[29].veinsmobility speed ETV
vector 150 Scenario.node[31].veinsmobility posx ETV
vector 151 Scenario.node[31].veinsmobility posy ETV
vector 152 Scenario.node[29].veinsmobility acceleration ETV
vector 153 Scenario.node[29].veinsmobility co2emission ETV
vector 154 Scenario.node[30].veinsmobility speed ETV
113	23266	29	4.3106281058609
113	26012	30	4.0408383232196
113	28931	31	0.973
113	31996	32	0.973
113	35337	33	5.0364120767755
113	38967	34	5.1260968887998
113	42842	35	6.0641930788745
113	46863	36	7.4610401769802
113	50931	37	0.973
113	55268	38	4.0053622301629
112	23266	29	1.9540925849229
112	26012	30	1.3954613685836
112	28931	31	-2.1635890997756
112	31996	32	-1.7991980687702
112	35337	33	2.4832731289137
112	38967	34	1.879917802352
112	42842	35	1.8642008966999
112	46863	36	1.9857616798277
112	50931	37	-2.3465668216518
112	55268	38	0.92031769156163
107	20777	28	4.1698614259812
107	23266	29	6.1239540109041
107	26012	30	7.5194153794877
107	28931	31	5.3558262797121
107	31996	32	3.5566282109419
107	35337	33	6.0399013398556
107	38967	34	7.9198191422076
107	42842	35	9.7840200389075
107	46863	36	11.769781718735
107	50931	37	9.4232148970834
107	55268	38	10.343532588645
101	18525	27	235.98287675613
101	20777	28	235.98287675613
101	23266	29	233.15130115545
101	26012	30	228.58783330304
101	28931	31	222.44957778914
101	31996	32	216.70794467135
101	35337	33	213.0792733801
101	38967	34	210.61777617275
101	42842	35	210.55288672963
101	46863	36	211.01315717657
101	50931	37	212.67901907266
101	55268	38	214.43889848016
100	18525	27	477.49372389043
100	20777	28	477.49372389043
100	23266	29	475.89483077251
100	26012	30	473.31799781023
100	28931	31	469.8519365492
100	31996	32	466.60983428098
100	35337	33	464.56084870794
100	38967	34	460.5870489895
100	42842	35	453.52196286932
100	46863	36	444.6283500399
100	50931	37	433.95351367721
100	55268	38	423.47914369485
vector 155 Scenario.node[32].veinsmobility posx ETV
vector 156 Scenario.node[32].veinsmobility posy ETV
vector 157 Scenario.node[30].veinsmobility acceleration ETV
vector 158 Scenario.node[30].veinsmobility co2emission ETV
vector 159 Scenario.node[31].veinsmobility speed ETV
vector 160 Scenario.node[31].veinsmobility acceleration ETV
vector 161 Scenario.node[31].veinsmobility co2emission ETV
vector 162 Scenario.node[32].veinsmobility speed ETV
vector 163 Scenario.node[33].veinsmobility posx ETV
vector 164 Scenario.node[33].veinsmobility posy ETV
vector 165 Scenario.node[32].veinsmobility acceleration ETV
vector 166 Scenario.node[32].veinsmobility co2emission ETV
vector 167 Scenario.node[34].veinsmobility posx ETV
vector 168 Scenario.node[34].veinsmobility posy ETV
vector 169 Scenario.node[33].veinsmobility speed ETV
vector 170 Scenario.node[35].veinsmobility posx ETV
vector 171 Scenario.node[35].veinsmobility posy ETV
vector 172 Scenario.node[33].veinsmobility acceleration ETV
vector 173 Scenario.node[33].veinsmobility co2emission ETV
vector 174 Scenario.node[34].veinsmobility speed ETV
vector 175 Scenario.node[36].veinsmobility posx ETV
vector 176 Scenario.node[36].veinsmobility posy ETV
vector 177 Scenario.node[34].veinsmobility acceleration ETV
vector 178 Scenario.node[34].veinsmobility co2emission ETV
vector 179 Scenario.node[35].veinsmobility speed ETV
vector 180 Scenario.node[37].veinsmobility posx ETV
vector 181 Scenario.node[37].veinsmobility posy ETV
vector 182 Scenario.node[35].veinsmobility acceleration ETV
vector 183 Scenario.node[35].veinsmobility co2emission ETV
vector 184 Scenario.node[36].veinsmobility speed ETV
vector 185 Scenario.node[36].veinsmobility acceleration ETV
vector 186 Scenario.node[36].veinsmobility co2emission ETV
vector 187 Scenario.node[37].veinsmobility speed ETV
vector 188 Scenario.node[38].veinsmobility posx ETV
vector 189 Scenario.node[38].veinsmobility posy ETV
vector 190 Scenario.node[37].veinsmobility acceleration ETV
vector 191 Scenario.node[37].veinsmobility co2emission ETV
vector 192 Scenario.node[39].veinsmobility posx ETV
vector 193 Scenario.node[39].veinsmobility posy ETV
vector 194 Scenario.node[38].veinsmobility speed ETV
vector 195 Scenario.node[40].veinsmobility posx ETV
vector 196 Scenario.node[40].veinsmobility posy ETV
vector 197 Scenario.node[38].veinsmobility acceleration ETV
vector 198 Scenario.node[38].veinsmobility co2emission ETV
vector 199 Scenario.node[39].veinsmobility speed ETV
vector 200 Scenario.node[41].veinsmobility posx ETV
vector 201 Scenario.node[41].veinsmobility posy ETV
vector 202 Scenario.node[39].veinsmobility acceleration ETV
vector 203 Scenario.node[39].veinsmobility co2emission ETV
vector 204 Scenario.node[40].veinsmobility speed ETV
vector 205 Scenario.node[42].veinsmobility posx ETV
vector 206 Scenario.node[42].veinsmobility posy ETV
vector 207 Scenario.node[40].veinsmobility acceleration ETV
vector 208 Scenario.node[40].veinsmobility co2emission ETV
vector 209 Scenario.node[41].veinsmobility speed ETV
vector 210 Scenario.node[43].veinsmobility posx ETV
vector 211 Scenario.node[43].veinsmobility posy ETV
vector 212 Scenario.node[41].veinsmobility acceleration ETV
vector 213 Scenario.node[41].veinsmobility co2emission ETV
vector 214 Scenario.node[42].veinsmobility speed ETV
vector 215 Scenario.node[44].veinsmobility posx ETV
vector 216 Scenario.node[44].veinsmobility posy ETV
vector 217 Scenario.node[42].veinsmobility acceleration ETV
vector 218 Scenario.node[42].veinsmobility co2emission ETV
vector 219 Scenario.node[43].veinsmobility speed ETV
vector 220 Scenario.node[45].veinsmobility posx ETV
vector 221 Scenario.node[45].veinsmobility posy ETV
vector 222 Scenario.node[43].veinsmobility acceleration ETV
vector 223 Scenario.node[43].veinsmobility co2emission ETV
vector 224 Scenario.node[44].veinsmobility speed ETV
vector 225 Scenario.node[44].veinsmobility acceleration ETV
vector 226 Scenario.node[44].veinsmobility co2emission ETV
vector 227 Scenario.node[45].veinsmobility speed ETV
vector 228 Scenario.node[46].veinsmobility posx ETV
vector 229 Scenario.node[46].veinsmobility posy ETV
vector 230 Scenario.node[45].veinsmobility acceleration ETV
vector 231 Scenario.node[45].veinsmobility co2emission ETV
vector 232 Scenario.node[47].veinsmobility posx ETV
vector 233 Scenario.node[47].veinsmobility posy ETV
vector 234 Scenario.node[46].veinsmobility speed ETV
vector 235 Scenario.node[48].veinsmobility posx ETV
vector 236 Scenario.node[48].veinsmobility posy ETV
vector 237 Scenario.node[46].veinsmobility acceleration ETV
vector 238 Scenario.node[46].veinsmobility co2emission ETV
vector 239 Scenario.node[47].veinsmobility speed ETV
vector 240 Scenario.node[47].veinsmobility acceleration ETV
vector 241 Scenario.node[47].veinsmobility co2emission ETV
vector 242 Scenario.node[48].veinsmobility speed ETV
vector 243 Scenario.node[49].veinsmobility posx ETV
vector 244 Scenario.node[49].veinsmobility posy ETV
vector 245 Scenario.node[50].veinsmobility posx ETV
vector 246 Scenario.node[50].veinsmobility posy ETV
vector 247 Scenario.node[48].veinsmobility acceleration ETV
vector 248 Scenario.node[48].veinsmobility co2emission ETV
203	126890	50	4.3836212249561
203	134953	51	5.4258263984401
203	143353	52	6.4093460428133
203	152182	53	6.9281414315952
203	161340	54	7.6898356538151
203	171039	55	3.1503484820962
203	180762	56	1.8507018411882
203	191030	57	2.1389148714207
203	201775	58	1.9743386556693
203	212797	59	1.8173571568207
203	223883	60	2.042802921106
202	126890	50	2.0531386931427
202	134953	51	2.0125868238602
202	143353	52	1.9669689151598
202	152182	53	1.7979952106159
202	161340	54	1.7493866655254
202	171039	55	0.33726109630698
202	180762	56	-0.050591328572482
202	191030	57	0.034886146800128
202	201775	58	-0.014042860295158
202	212797	59	-0.059605272586923
202	223883	60	0.0080958616780116
199	119136	49	3.9385229988719
199	126890	50	5.9916616920145
199	134953	51	8.0042485158747
199	143353	52	9.9712174310345
199	152182	53	11.76921264165
199	161340	54	13.518599307176
199	171039	55	13.855860403483
199	180762	56	13.80526907491
199	191030	57	13.84015522171
199	201775	58	13.826112361415
199	212797	59	13.766507088828
199	223883	60	13.774602950506
193	111815	48	668.79737831795
193	119136	49	668.79737831795
193	126890	50	665.81312272388
193	134953	51	661.01657558334
193	143353	52	654.30964290624
193	152182	53	645.75784985669
193	161340	54	635.39571913452
193	171039	55	623.39192468856
193	180762	56	610.3159920396
193	191030	57	597.22358370654
193	201775	58	584.1310145985
193	212797	59	571.04670520192
193	223883	60	557.96829134357
192	111815	48	529.09534470848
192	119136	49	529.09534470848
192	126890	50	528.04588149123
192	134953	51	526.35909574681
192	143353	52	524.00049108869
192	152182	53	520.99311053294
192	161340	54	517.45277745149
192	171039	55	513.36607637677
192	180762	56	508.91436502416
192	191030	57	504.45704451219
192	201775	58	499.99966926426
192	212797	59	495.54510604146
192	223883	60	491.0925499592
vector 249 Scenario.node[51].veinsmobility posx ETV
vector 250 Scenario.node[51].veinsmobility posy ETV
vector 251 Scenario.node[49].veinsmobility speed ETV
vector 252 Scenario.node[50].veinsmobility speed ETV
vector 253 Scenario.node[52].veinsmobility posx ETV
vector 254 Scenario.node[52].veinsmobility posy ETV
vector 255 Scenario.node[49].veinsmobility acceleration ETV
vector 256 Scenario.node[49].veinsmobility co2emission ETV
vector 257 Scenario.node[50].veinsmobility acceleration ETV
vector 258 Scenario.node[50].veinsmobility co2emission ETV
vector 259 Scenario.node[51].veinsmobility speed ETV
vector 260 Scenario.node[53].veinsmobility posx ETV
vector 261 Scenario.node[53].veinsmobility posy ETV
vector 262 Scenario.node[51].veinsmobility acceleration ETV
vector 263 Scenario.node[51].veinsmobility co2emission ETV
vector 264 Scenario.node[52].veinsmobility speed ETV
vector 265 Scenario.node[54].veinsmobility posx ETV
vector 266 Scenario.node[54].veinsmobility posy ETV
vector 267 Scenario.node[52].veinsmobility acceleration ETV
vector 268 Scenario.node[52].veinsmobility co2emission ETV
vector 269 Scenario.node[53].veinsmobility speed ETV
vector 270 Scenario.node[55].veinsmobility posx ETV
vector 271 Scenario.node[55].veinsmobility posy ETV
vector 272 Scenario.node[53].veinsmobility acceleration ETV
vector 273 Scenario.node[53].veinsmobility co2emission ETV
vector 274 Scenario.node[54].veinsmobility speed ETV
vector 275 Scenario.node[56].veinsmobility posx ETV
vector 276 Scenario.node[56].veinsmobility posy ETV
vector 277 Scenario.node[54].veinsmobility acceleration ETV
vector 278 Scenario.node[54].veinsmobility co2emission ETV
vector 279 Scenario.node[55].veinsmobility speed ETV
vector 280 Scenario.node[57].veinsmobility posx ETV
vector 281 Scenario.node[57].veinsmobility posy ETV
vector 282 Scenario.node[55].veinsmobility acceleration ETV
vector 283 Scenario.node[55].veinsmobility co2emission ETV
vector 284 Scenario.node[56].veinsmobility speed ETV
vector 285 Scenario.node[56].veinsmobility acceleration ETV
vector 286 Scenario.node[56].veinsmobility co2emission ETV
vector 287 Scenario.node[57].veinsmobility speed ETV
vector 288 Scenario.node[58].veinsmobility posx ETV
vector 289 Scenario.node[58].veinsmobility posy ETV
vector 290 Scenario.node[57].veinsmobility acceleration ETV
vector 291 Scenario.node[57].veinsmobility co2emission ETV
vector 292 Scenario.node[59].veinsmobility posx ETV
vector 293 Scenario.node[59].veinsmobility posy ETV
vector 294 Scenario.node[58].veinsmobility speed ETV
vector 295 Scenario.node[60].veinsmobility posx ETV
vector 296 Scenario.node[60].veinsmobility posy ETV
vector 297 Scenario.node[58].veinsmobility acceleration ETV
vector 298 Scenario.node[58].veinsmobility co2emission ETV
vector 299 Scenario.node[59].veinsmobility speed ETV
vector 300 Scenario.node[61].veinsmobility posx ETV
vector 301 Scenario.node[61].veinsmobility posy ETV
vector 302 Scenario.node[59].veinsmobility acceleration ETV
vector 303 Scenario.node[59].veinsmobility co2emission ETV
vector 304 Scenario.node[60].veinsmobility speed ETV
vector 305 Scenario.node[62].veinsmobility posx ETV
vector 306 Scenario.node[62].veinsmobility posy ETV
vector 307 Scenario.node[60].veinsmobility acceleration ETV
vector 308 Scenario.node[60].veinsmobility co2emission ETV
vector 309 Scenario.node[61].veinsmobility speed ETV
198	119136	49	3.8708812423792
198	126890	50	5.1520658508695
198	134953	51	6.4484948424644
198	143353	52	7.4719189660387
198	152182	53	8.461604452982
198	161340	54	2.7516333059765
198	171039	55	1.9837295533101
198	180762	56	2.044387520898
198	191030	57	1.7644839450376
198	201775	58	2.2660225296759
198	212797	59	1.8610681647455
198	223883	60	2.2532475723722
198	235839	61	1.8367150012989
198	247571	62	1.9571310500462
198	259933	63	2.2317877059025
198	272695	64	1.6919293023756
198	285918	65	2.1375626386131
198	299698	66	2.2528731143928
198	314100	67	2.0655536585483
198	329316	68	2.0194489474269
198	344304	69	2.0043901716553
198	359567	70	1.8156886821716
198	375359	71	2.1499402252014
198	391834	72	1.9917907464697
198	408673	73	2.0983271705952
197	119136	49	1.8065099695045
197	126890	50	1.9712203606567
197	134953	51	2.0488555283728
197	143353	52	2.0039885228849
197	152182	53	1.9615115606552
197	161340	54	0.21690815117153
197	171039	55	-0.012347854268736
197	180762	56	0.0056329009099851
197	191030	57	-0.076214868219102
197	201775	58	0.07208558993414
197	212797	59	-0.047814187344629
197	223883	60	0.067565842794719
197	235839	61	-0.055446890788152
197	247571	62	-0.018774278284981
197	259933	63	0.061592521262355
197	272695	64	-0.097612370192074
197	285918	65	0.035452541892882
197	299698	66	0.067703687641771
197	314100	67	0.011344347267876
197	329316	68	-0.0023576717101967
197	344304	69	-0.0066580206132496
197	359567	70	-0.061475833009462
197	375359	71	0.03763978908537
197	391834	72	-0.0094373629591438
197	408673	73	0.021789576059673
194	111815	48	3.8675092150323
194	119136	49	5.6740191845369
194	126890	50	7.6452395451936
194	134953	51	9.6940950735664
194	143353	52	11.698083596451
194	152182	53	13.659595157107
194	161340	54	13.876503308278
194	171039	55	13.864155454009
194	180762	56	13.869788354919
194	191030	57	13.7935734867
194	201775	58	13.865659076634
194	212797	59	13.81784488929
194	223883	60	13.885410732084
194	235839	61	13.829963841296
194	247571	62	13.811189563011
194	259933	63	13.872782084274
194	272695	64	13.775169714082
194	285918	65	13.810622255974
194	299698	66	13.878325943616
194	314100	67	13.889670290884
194	329316	68	13.887312619174
194	344304	69	13.880654598561
194	359567	70	13.819178765551
194	375359	71	13.856818554637
194	391834	72	13.847381191677
194	408673	73	13.869170767737
189	104939	47	569.1350796223
189	111815	48	569.1350796223
189	119136	49	572.18531971344
189	126890	50	577.11854205121
189	134953	51	583.91540007516
189	143353	52	592.73666361726
189	152182	53	603.53006608858
189	161340	54	615.99612338656
189	171039	55	629.80300035561
189	180762	56	643.61070077878
189	191030	57	657.43792199961
189	201775	58	671.25092651651
189	212797	59	685.09285701514
189	223883	60	698.92263689863
189	235839	61	712.74525132565
189	247571	62	726.54150832403
189	259933	63	740.36786301286
189	272695	64	754.19691152623
189	285918	65	767.88780164077
189	299698	66	781.70729162612
189	314100	67	795.59890901029
189	329316	68	809.22400302285
189	344304	69	822.82678460518
189	359567	70	836.4087987476
189	375359	71	849.91377730247
189	391834	72	862.88270325255
189	408673	73	875.79610438214
188	104939	47	1016.299733866
188	111815	48	1016.299733866
188	119136	49	1016.2946628101
188	126890	50	1016.3070967233
188	134953	51	1016.3603411537
188	143353	52	1016.3548285202
188	152182	53	1016.3752047095
188	161340	54	1017.851418508
188	171039	55	1018.2079282374
188	180762	56	1018.502712317
188	191030	57	1018.744079413
188	201775	58	1018.8101761189
188	212797	59	1018.8640957146
188	223883	60	1018.917967979
188	235839	61	1018.9702449981
188	247571	62	1018.9775100096
188	259933	63	1018.9392918475
188	272695	64	1018.8346395885
188	285918	65	1017.842367136
188	299698	66	1018.4725303916
188	314100	67	1019.9936998091
188	329316	68	1022.7485916418
188	344304	69	1025.4353101932
188	359567	70	1028.1179269168
188	375359	71	1031.400193722
188	391834	72	1036.4252080346
188	408673	73	1041.6339748768
vector 310 Scenario.node[63].veinsmobility posx ETV
vector 311 Scenario.node[63].veinsmobility posy ETV
vector 312 Scenario.node[61].veinsmobility acceleration ETV
vector 313 Scenario.node[61].veinsmobility co2emission ETV
vector 314 Scenario.node[62].veinsmobility speed ETV
vector 315 Scenario.node[64].veinsmobility posx ETV
vector 316 Scenario.node[64].veinsmobility posy ETV
vector 317 Scenario.node[62].veinsmobility acceleration ETV
vector 318 Scenario.node[62].veinsmobility co2emission ETV
vector 319 Scenario.node[63].veinsmobility speed ETV
vector 320 Scenario.node[63].veinsmobility acceleration ETV
vector 321 Scenario.node[63].veinsmobility co2emission ETV
vector 322 Scenario.node[64].veinsmobility speed ETV
vector 323 Scenario.node[65].veinsmobility posx ETV
vector 324 Scenario.node[65].veinsmobility posy ETV
vector 325 Scenario.node[64].veinsmobility acceleration ETV
vector 326 Scenario.node[64].veinsmobility co2emission ETV
vector 327 Scenario.node[66].veinsmobility posx ETV
vector 328 Scenario.node[66].veinsmobility posy ETV
vector 329 Scenario.node[65].veinsmobility speed ETV
vector 330 Scenario.node[67].veinsmobility posx ETV
vector 331 Scenario.node[67].veinsmobility posy ETV
vector 332 Scenario.node[65].veinsmobility acceleration ETV
vector 333 Scenario.node[65].veinsmobility co2emission ETV
vector 334 Scenario.node[66].veinsmobility speed ETV
vector 335 Scenario.node[68].veinsmobility posx ETV
vector 336 Scenario.node[68].veinsmobility posy ETV
vector 337 Scenario.node[69].veinsmobility posx ETV
vector 338 Scenario.node[69].veinsmobility posy ETV
vector 339 Scenario.node[66].veinsmobility acceleration ETV
vector 340 Scenario.node[66].veinsmobility co2emission ETV
vector 341 Scenario.node[67].veinsmobility speed ETV
vector 342 Scenario.node[70].veinsmobility posx ETV
vector 343 Scenario.node[70].veinsmobility posy ETV
vector 344 Scenario.node[67].veinsmobility acceleration ETV
vector 345 Scenario.node[67].veinsmobility co2emission ETV
vector 346 Scenario.node[68].veinsmobility speed ETV
vector 347 Scenario.node[69].veinsmobility speed ETV
73	7174	20	3.987624936329
73	8440	21	5.3411050287087
73	9863	22	6.4022530773402
73	11391	23	7.6891452418633
73	13116	24	8.6269546219587
73	14849	25	1.943197809167
73	16687	26	2.0963146664137
73	18525	27	2.0635008453324
73	20777	28	1.7659895620719
73	23266	29	2.1025926525645
73	26012	30	2.0637278536456
73	28931	31	1.3598029882811
73	31996	32	0.973
73	35337	33	0.973
73	38967	34	1.5257327685169
73	42842	35	1.5213672218795
73	46863	36	1.7378505662509
73	50931	37	1.4948264376348
73	55268	38	1.4616194993808
73	59894	39	1.6726771193571
73	64648	40	1.4427207545045
73	69426	41	1.5846910822519
73	74553	42	1.4701597453512
73	80041	43	0.973
73	85822	44	0.973
73	91908	45	2.7256836637264
73	98391	46	4.788753113721
73	104939	47	4.0007296103613
73	111815	48	1.6512997724222
73	119136	49	0.973
73	126890	50	0.973
73	134953	51	4.8880921058103
73	143353	52	4.8585698302795
73	152182	53	5.6820649917383
73	161340	54	7.2469729567965
73	171039	55	7.8676088708259
73	180762	56	4.0034092260212
73	191030	57	2.0509134138768
73	201775	58	2.1412555540834
73	212797	59	1.8990020686291
73	223883	60	2.1340991685979
73	235839	61	1.7729589485367
73	247571	62	1.922728674892
73	259933	63	2.1638643325468
73	272695	64	1.8872921544705
73	285918	65	2.3124427146651
73	299698	66	2.0317630129323
73	314100	67	1.7633976332378
73	329316	68	2.0402285476397
73	344304	69	2.0035615447761
73	359567	70	2.1622458445062
73	375359	71	1.8709882120913
73	391834	72	2.2974528559275
73	408673	73	1.8507368843646
73	426036	74	2.1093501223819
73	443925	75	1.8929062496637
73	462049	76	2.1663697918098
73	480150	77	1.9048569078835
73	499297	78	2.219273867484
73	518819	79	1.6732306779592
73	538594	80	2.241377999309
73	559615	81	1.9026797303818
72	7174	20	1.8311736694071
72	8440	21	2.011987934967
72	9863	22	1.9930828861892
72	11391	23	2.0421111706365
72	13116	24	1.9759804882415
72	14849	25	-0.02378259417601
72	16687	26	0.021438922437374
72	18525	27	0.011264583684969
72	20777	28	-0.075840162415989
72	23266	29	0.024601768127177
72	26012	30	0.012541422352662
72	28931	31	-0.19546413667966
72	31996	32	-4.4182257063105
72	35337	33	-0.94216357684927
72	38967	34	-0.017493197529111
72	42842	35	-0.019086784047541
72	46863	36	0.086092988320161
72	50931	37	-0.033996739413123
72	55268	38	-0.049247621481772
72	59894	39	0.054762548445723
72	64648	40	-0.05865572026465
72	69426	41	0.012394925311673
72	74553	42	-0.043943135004957
72	80041	43	-1.8334837468035
72	85822	44	-2.3737037493938
72	91908	45	1.1031387640141
72	98391	46	1.9457860603486
72	104939	47	1.2233043831744
72	111815	48	0.04336595088942
72	119136	49	-2.578843595472
72	126890	50	-2.4124143055003
72	134953	51	2.4847725774324
72	143353	52	1.8167594751623
72	152182	53	1.7820572721958
72	161340	54	1.9848905082652
72	171039	55	1.8497399722296
72	180762	56	0.59401670084753
72	191030	57	0.0083052827394567
72	201775	58	0.034251447916031
72	212797	59	-0.037137935019564
72	223883	60	0.032271337702404
72	235839	61	-0.073877152523492
72	247571	62	-0.028056830102578
72	259933	63	0.043137326336
72	272695	64	-0.038850134592503
72	285918	65	0.086027142410167
72	299698	66	0.0019639047654341
72	314100	67	-0.076448137999979
72	329316	68	0.0066456776321875
72	344304	69	-0.0042542889621107
72	359567	70	0.042077387191821
72	375359	71	-0.04408438633196
72	391834	72	0.08128058613045
72	408673	73	-0.050987035422585
72	426036	74	0.025823966425378
72	443925	75	-0.037990408898333
72	462049	76	0.042751898402349
72	480150	77	-0.034625783541705
72	499297	78	0.057799113534855
72	518819	79	-0.10315150639741
72	538594	80	0.065722655132413
72	559615	81	-0.034875876842998
69	6045	19	4.0093003658598
69	7174	20	5.8404740352669
69	8440	21	7.8524619702339
69	9863	22	9.8455448564232
69	11391	23	11.88765602706
69	13116	24	13.863636515301
69	14849	25	13.839853921125
69	16687	26	13.861292843563
69	18525	27	13.872557427248
69	20777	28	13.796717264832
69	23266	29	13.821319032959
69	26012	30	13.833860455311
69	28931	31	13.638396318632
69	31996	32	9.2201706123212
69	35337	33	8.278007035472
69	38967	34	8.2605138379429
69	42842	35	8.2414270538953
69	46863	36	8.3275200422155
69	50931	37	8.2935233028024
69	55268	38	8.2442756813206
69	59894	39	8.2990382297663
69	64648	40	8.2403825095017
69	69426	41	8.2527774348133
69	74553	42	8.2088342998084
69	80041	43	6.3753505530048
69	85822	44	4.001646803611
69	91908	45	5.1047855676251
69	98391	46	7.0505716279737
69	104939	47	8.2738760111481
69	111815	48	8.3172419620375
69	119136	49	5.7383983665655
69	126890	50	3.3259840610651
69	134953	51	5.8107566384976
69	143353	52	7.6275161136598
69	152182	53	9.4095733858557
69	161340	54	11.394463894121
69	171039	55	13.24420386635
69	180762	56	13.838220567198
69	191030	57	13.846525849937
69	201775	58	13.880777297853
69	212797	59	13.843639362834
69	223883	60	13.875910700536
69	235839	61	13.802033548013
69	247571	62	13.77397671791
69	259933	63	13.817114044246
69	272695	64	13.778263909654
69	285918	65	13.864291052064
69	299698	66	13.866254956829
69	314100	67	13.789806818829
69	329316	68	13.796452496462
69	344304	69	13.792198207499
69	359567	70	13.834275594691
69	375359	71	13.790191208359
69	391834	72	13.87147179449
69	408673	73	13.820484759067
69	426036	74	13.846308725493
69	443925	75	13.808318316594
69	462049	76	13.851070214997
69	480150	77	13.816444431455
69	499297	78	13.87424354499
69	518819	79	13.771092038592
69	538594	80	13.836814693725
69	559615	81	13.801938816882
61	5057	18	378.2623821686
61	6045	19	378.2623821686
61	7174	20	378.63253055652
61	8440	21	379.22548443708
61	9863	22	379.91331063873
61	11391	23	380.45511881591
61	13116	24	380.88337646799
61	14849	25	381.02725294052
61	16687	26	381.18015168684
61	18525	27	377.92817533389
61	20777	28	368.2594870182
61	23266	29	354.68030203943
61	26012	30	341.09714307136
61	28931	31	327.50299599732
61	31996	32	313.94446040417
61	35337	33	303.35834137986
61	38967	34	302.65606388554
61	42842	35	302.20136279907
61	46863	36	301.74533206834
61	50931	37	301.42394535129
61	55268	38	301.37558510261
61	59894	39	301.32731999406
61	64648	40	301.29020496778
61	69426	41	301.84751036284
61	74553	42	303.21311389625
61	80041	43	305.19447015447
61	85822	44	307.32945017953
61	91908	45	308.89289809025
61	98391	46	310.16235512223
61	104939	47	312.23445451374
61	111815	48	315.50995445777
61	119136	49	319.3203127003
61	126890	50	323.17336991052
61	134953	51	325.62735922448
61	143353	52	328.95594172408
61	152182	53	335.05881125351
61	161340	54	343.37416728681
61	171039	55	353.57145750468
61	180762	56	365.55348886904
61	191030	57	378.97350923926
61	201775	58	392.48431208539
61	212797	59	406.12730026658
61	223883	60	419.85466623119
61	235839	61	433.62141174736
61	247571	62	447.45314376548
61	259933	63	461.33975950916
61	272695	64	475.26483665949
61	285918	65	489.05483390074
61	299698	66	502.75212211305
61	314100	67	516.49473092602
61	329316	68	530.31999216296
61	344304	69	544.15875962236
61	359567	70	557.99571948168
61	375359	71	571.26735606163
61	391834	72	585.06170429557
61	408673	73	598.89191184505
61	426036	74	612.71150531873
61	443925	75	626.22112764493
61	462049	76	639.98091841297
61	480150	77	653.82884782477
61	499297	78	667.66643760645
61	518819	79	681.51310883311
61	538594	80	695.34439668123
61	559615	81	709.1727127118
60	5057	18	1001.166299338
60	6045	19	1001.166299338
60	7174	20	998.06630658912
60	8440	21	993.10031783944
60	9863	22	986.18889433245
60	11391	23	977.30017338799
60	13116	24	966.31942964728
60	14849	25	953.29860888298
60	16687	26	939.46127234094
60	18525	27	926.1433295781
60	20777	28	916.8549345929
60	23266	29	914.24701164996
60	26012	30	911.63832549053
60	28931	31	909.0275290326
60	31996	32	906.4235718657
60	35337	33	906.20362079183
60	38967	34	914.45847885161
60	42842	35	922.68885449236
60	46863	36	930.94329753035
60	50931	37	939.21333809766
60	55268	38	947.4768955918
60	59894	39	955.72419601574
60	64648	40	963.96093273327
60	69426	41	972.20354832935
60	74553	42	980.32644176892
60	80041	43	988.32946561087
60	85822	44	995.57377176158
60	91908	45	1000.3588699126
60	98391	46	1004.2441777984
60	104939	47	1010.1300226559
60	111815	48	1017.3805555629
60	119136	49	1024.6992044259
60	126890	50	1030.4756268117
60	134953	51	1034.0536747585
60	143353	52	1037.4320908251
60	152182	53	1039.1197602403
60	161340	54	1036.8291067532
60	171039	55	1034.0200317956
60	180762	56	1030.7193093951
60	191030	57	1027.2788539005
60	201775	58	1024.2171953608
60	212797	59	1021.7422981162
60	223883	60	1019.7637754366
60	235839	61	1017.8933158919
60	247571	62	1016.7439367459
60	259933	63	1016.4365997218
60	272695	64	1016.4890887448
60	285918	65	1016.671053492
60	299698	66	1017.7295957328
60	314100	67	1018.3666419843
60	329316	68	1018.2187063095
60	344304	69	1018.070626113
60	359567	70	1017.9764836799
60	375359	71	1019.5961940831
60	391834	72	1019.6695400733
60	408673	73	1019.6562906972
60	426036	74	1019.8252508865
60	443925	75	1021.4305576937
60	462049	76	1021.7312780677
60	480150	77	1021.9831252147
60	499297	78	1022.0963165566
60	518819	79	1022.1502346163
60	538594	80	1022.204092774
60	559615	81	1022.2579393597
vector 348 Scenario.node[71].veinsmobility posx ETV
vector 349 Scenario.node[71].veinsmobility posy ETV
vector 350 Scenario.node[68].veinsmobility acceleration ETV
vector 351 Scenario.node[68].veinsmobility co2emission ETV
vector 352 Scenario.node[69].veinsmobility acceleration ETV
vector 353 Scenario.node[69].veinsmobility co2emission ETV
vector 354 Scenario.node[70].veinsmobility speed ETV
vector 355 Scenario.node[70].veinsmobility acceleration ETV
vector 356 Scenario.node[70].veinsmobility co2emission ETV
vector 357 Scenario.node[71].veinsmobility speed ETV
vector 358 Scenario.node[72].veinsmobility posx ETV
vector 359 Scenario.node[72].veinsmobility posy ETV
vector 360 Scenario.node[71].veinsmobility acceleration ETV
vector 361 Scenario.node[71].veinsmobility co2emission ETV
vector 362 Scenario.node[73].veinsmobility posx ETV
vector 363 Scenario.node[73].veinsmobility posy ETV
vector 364 Scenario.node[72].veinsmobility speed ETV
88	11391	23	4.0064374405362
88	13116	24	4.830273510768
88	14849	25	6.3762478535697
88	16687	26	7.4812100315717
88	18525	27	8.0777918314544
88	20777	28	3.1564500029258
88	23266	29	2.348681259315
88	26012	30	2.0049515445441
88	28931	31	1.2310263633946
88	31996	32	0.973
88	35337	33	5.1371784418657
88	38967	34	0.973
88	42842	35	0.973
88	46863	36	0.973
88	50931	37	5.1741191690389
88	55268	38	5.3355118735662
88	59894	39	0.973
88	64648	40	0.973
88	69426	41	4.3403081198653
88	74553	42	3.4154183373888
88	80041	43	2.6867101664112
88	85822	44	0.973
88	91908	45	0.973
88	98391	46	3.1205353070668
88	104939	47	4.3983420355174
88	111815	48	0.973
88	119136	49	3.7177449738756
88	126890	50	5.1673089529866
88	134953	51	6.0592327185429
88	143353	52	6.5057546080664
88	152182	53	7.869142883922
88	161340	54	4.359179135216
88	171039	55	2.2148449058773
88	180762	56	2.0588379684091
88	191030	57	1.7006079380643
88	201775	58	2.0379756342132
88	212797	59	2.221720091994
88	223883	60	2.1314836053685
88	235839	61	1.8174194917391
88	247571	62	1.8483740585924
88	259933	63	2.0665993995951
88	272695	64	2.0574834474458
88	285918	65	1.9206277525251
88	299698	66	0.973
88	314100	67	0.973
88	329316	68	0.973
88	344304	69	0.973
88	359567	70	2.3007492483628
88	375359	71	5.4056849193749
88	391834	72	5.8242568076259
88	408673	73	6.5852326790529
88	426036	74	7.8097875246783
88	443925	75	5.2736442896137
88	462049	76	1.6926880856964
88	480150	77	0.973
88	499297	78	0.973
88	518819	79	0.973
88	538594	80	0.973
88	559615	81	5.1217187858436
88	581013	82	5.6316492778411
88	602483	83	6.7758282566978
88	624309	84	7.429325707881
88	646376	85	7.0603238074926
87	11391	23	1.9473824001336
87	13116	24	1.8581114087347
87	14849	25	2.0675920494064
87	16687	26	2.0412097992841
87	18525	27	1.8855353230401
87	20777	28	0.34424700248222
87	23266	29	0.097058455769439
87	26012	30	-0.0056814064434736
87	28931	31	-0.23439163861634
87	31996	32	-3.3553789043847
87	35337	33	1.2062560949629
87	38967	34	-3.1927406733073
87	42842	35	-2.7054462987913
87	46863	36	-1.9479554767993
87	50931	37	2.526955322118
87	55268	38	1.9413835596037
87	59894	39	-2.0939941824685
87	64648	40	-2.3993964519217
87	69426	41	2.1278168021152
87	74553	42	1.1688718944274
87	80041	43	0.64558395168484
87	85822	44	-1.0096202480344
87	91908	45	-3.9166073844465
87	98391	46	1.7179864192661
87	104939	47	1.9547249809904
87	111815	48	-2.4736113098839
87	119136	49	1.737211327973
87	126890	50	2.005717685665
87	134953	51	1.9300030558067
87	143353	52	1.7448301439662
87	152182	53	1.873978308076
87	161340	54	0.70307390879361
87	171039	55	0.05677023908822
87	180762	56	0.0097801504470407
87	191030	57	-0.095119174704887
87	201775	58	0.0062718337704428
87	212797	59	0.059505488548893
87	223883	60	0.031436065663582
87	235839	61	-0.060890408041885
87	247571	62	-0.050253416288179
87	259933	63	0.015048898274545
87	272695	64	0.011931352345272
87	285918	65	-0.028434027384501
87	299698	66	-0.46158186680356
87	314100	67	-3.3414713187034
87	329316	68	-3.037374869774
87	344304	69	-2.6237232442467
87	359567	70	0.7652821999491
87	375359	71	2.2243649584358
87	391834	72	1.8966829454852
87	408673	73	1.8178287624521
87	426036	74	1.8916784461448
87	443925	75	0.97185045314601
87	462049	76	-0.097290966943838
87	480150	77	-2.5988432362181
87	499297	78	-3.1188528960294
87	518819	79	-2.7629477050441
87	538594	80	-1.3487373202336
87	559615	81	2.4065175397834
87	581013	82	2.0160932625597
87	602483	83	2.021986811005
87	624309	84	1.8798379462399
87	646376	85	1.5181651323614
84	9863	22	3.6181874118682
84	11391	23	5.5655698120019
84	13116	24	7.4236812207366
84	14849	25	9.4912732701429
84	16687	26	11.532483069427
84	18525	27	13.418018392467
84	20777	28	13.762265394949
84	23266	29	13.859323850719
84	26012	30	13.853642444275
84	28931	31	13.619250805659
84	31996	32	10.263871901274
84	35337	33	11.470127996237
84	38967	34	8.2773873229299
84	42842	35	5.5719410241387
84	46863	36	3.6239855473393
84	50931	37	6.1509408694573
84	55268	38	8.092324429061
84	59894	39	5.9983302465925
84	64648	40	3.5989337946707
84	69426	41	5.726750596786
84	74553	42	6.8956224912133
84	80041	43	7.5412064428982
84	85822	44	6.5315861948638
84	91908	45	2.6149788104172
84	98391	46	4.3329652296833
84	104939	47	6.2876902106737
84	111815	48	3.8140789007898
84	119136	49	5.5512902287628
84	126890	50	7.5570079144278
84	134953	51	9.4870109702345
84	143353	52	11.231841114201
84	152182	53	13.105819422277
84	161340	54	13.80889333107
84	171039	55	13.865663570159
84	180762	56	13.875443720606
84	191030	57	13.780324545901
84	201775	58	13.786596379671
84	212797	59	13.84610186822
84	223883	60	13.877537933884
84	235839	61	13.816647525842
84	247571	62	13.766394109554
84	259933	63	13.781443007828
84	272695	64	13.793374360173
84	285918	65	13.764940332789
84	299698	66	13.303358465985
84	314100	67	9.961887147282
84	329316	68	6.924512277508
84	344304	69	4.3007890332613
84	359567	70	5.0660712332104
84	375359	71	7.2904361916462
84	391834	72	9.1871191371314
84	408673	73	11.004947899584
84	426036	74	12.896626345728
84	443925	75	13.868476798874
84	462049	76	13.77118583193
84	480150	77	11.172342595712
84	499297	78	8.053489699683
84	518819	79	5.2905419946388
84	538594	80	3.9418046744052
84	559615	81	6.3483222141886
84	581013	82	8.3644154767483
84	602483	83	10.386402287753
84	624309	84	12.266240233993
84	646376	85	13.784405366355
76	8440	21	558.34491506656
76	9863	22	558.34491506656
76	11391	23	558.74270847657
76	13116	24	559.37735855247
76	14849	25	560.2743088689
76	16687	26	562.23335531912
76	18525	27	565.92777831262
76	20777	28	569.4586856029
76	23266	29	573.33454404874
76	26012	30	577.22365591687
76	28931	31	570.83288951488
76	31996	32	560.04280205843
76	35337	33	550.86174520636
76	38967	34	542.45951190623
76	42842	35	538.86371460574
76	46863	36	535.37900919201
76	50931	37	531.20252870602
76	55268	38	526.27033299262
76	59894	39	519.43459043938
76	64648	40	512.79385461553
76	69426	41	508.48169426133
76	74553	42	504.23896789039
76	80041	43	498.07832336781
76	85822	44	491.49051019547
76	91908	45	484.88398168505
76	98391	46	481.14144767265
76	104939	47	477.93490303157
76	111815	48	472.90806155508
76	119136	49	468.18924244372
76	126890	50	463.91571964899
76	134953	51	457.46653074499
76	143353	52	449.10667092843
76	152182	53	438.9537437726
76	161340	54	426.93825480816
76	171039	55	413.38339657981
76	180762	56	399.58768603098
76	191030	57	385.78827847844
76	201775	58	371.99732041427
76	212797	59	358.20249990862
76	223883	60	344.4338676329
76	235839	61	330.69704422138
76	247571	62	316.92788375018
76	259933	63	303.18075220879
76	272695	64	289.39705053474
76	285918	65	275.56769706875
76	299698	66	261.76037255437
76	314100	67	248.00784667106
76	329316	68	237.09910606019
76	344304	69	228.84670124556
76	359567	70	223.5106551381
76	375359	71	219.54022665729
76	391834	72	213.47943243734
76	408673	73	209.23117861562
76	426036	74	210.47108484769
76	443925	75	212.26703111234
76	462049	76	214.2934599365
76	480150	77	216.33479513175
76	499297	78	218.20763942483
76	518819	79	219.94668160409
76	538594	80	221.38167074092
76	559615	81	222.29866858349
76	581013	82	225.57673072328
76	602483	83	224.21560578692
76	624309	84	222.09696786038
76	646376	85	220.39225675733
75	8440	21	941.96559253005
75	9863	22	941.96559253005
75	11391	23	939.04763233347
75	13116	24	934.3922418377
75	14849	25	927.81278311411
75	16687	26	919.51236172583
75	18525	27	909.65344645002
75	20777	28	897.59965949356
75	23266	29	884.3682806612
75	26012	30	871.09165738722
75	28931	31	861.07317512752
75	31996	32	852.45376054285
75	35337	33	845.11968325638
75	38967	34	838.40775135191
75	42842	35	830.30281561757
75	46863	36	825.43232881792
75	50931	37	824.65832932487
75	55268	38	823.62644814585
75	59894	39	821.4220182732
75	64648	40	818.53384537568
75	69426	41	816.84747448264
75	74553	42	815.1882573684
75	80041	43	812.67377903048
75	85822	44	809.75272108449
75	91908	45	806.72883738818
75	98391	46	805.01583674569
75	104939	47	803.54586305539
75	111815	48	801.34341846652
75	119136	49	800.01070248465
75	126890	50	798.84519626791
75	134953	51	797.14069269611
75	143353	52	795.02186744661
75	152182	53	792.45236964458
75	161340	54	789.75069692804
75	171039	55	787.66003235383
75	180762	56	786.69282548422
75	191030	57	785.92624147499
75	201775	58	785.19261818015
75	212797	59	784.45878941902
75	223883	60	784.70332639766
75	235839	61	786.21631136334
75	247571	62	787.43178058658
75	259933	63	788.64530521151
75	272695	64	789.63207836011
75	285918	65	790.12251801103
75	299698	66	790.61737644487
75	314100	67	791.1161506322
75	329316	68	789.65454490294
75	344304	69	789.50575534027
75	359567	70	788.76284792464
75	375359	71	787.94033234093
75	391834	72	786.11348039137
75	408673	73	779.40979339294
75	426036	74	769.26248195116
75	443925	75	757.32391195434
75	462049	76	743.81864824105
75	480150	77	730.25920954725
75	499297	78	717.81896091286
75	518819	79	708.63891479229
75	538594	80	702.35829661552
75	559615	81	698.34480747452
75	581013	82	697.50692289312
75	602483	83	704.75372382771
75	624309	84	714.1159472946
75	646376	85	725.44370213918
vector 365 Scenario.node[72].veinsmobility acceleration ETV
vector 366 Scenario.node[72].veinsmobility co2emission ETV
vector 367 Scenario.node[73].veinsmobility speed ETV
vector 368 Scenario.node[74].veinsmobility posx ETV
vector 369 Scenario.node[74].veinsmobility posy ETV
vector 370 Scenario.node[73].veinsmobility acceleration ETV
vector 371 Scenario.node[73].veinsmobility co2emission ETV
vector 372 Scenario.node[75].veinsmobility posx ETV
vector 373 Scenario.node[75].veinsmobility posy ETV
vector 374 Scenario.node[74].veinsmobility speed ETV
6	98	3	3.901157930287
6	154	4	5.3423608969634
6	255	5	2.7508165850323
6	381	6	1.4544663058756
6	507	7	1.666293456451
6	686	8	1.6322179525014
6	865	9	1.6000162473128
6	1044	10	1.5940320721453
6	1256	11	1.3435876619263
6	1545	12	1.7360666348359
6	1883	13	1.5955442207631
6	2306	14	1.5700051010941
6	2834	15	1.3599572314646
6	3455	16	1.7548149399327
6	4190	17	1.4249961094198
6	5057	18	1.6800388889944
6	6045	19	1.5807435994384
6	7174	20	1.5755925843888
6	8440	21	0.973
6	9863	22	0.973
6	11391	23	2.9032524128444
6	13116	24	4.7314643212745
6	14849	25	3.6866778408466
6	16687	26	1.6020748022152
6	18525	27	1.6942103299527
6	20777	28	1.3690636386099
6	23266	29	0.973
6	26012	30	0.973
6	28931	31	0.973
6	31996	32	5.2157268639335
6	35337	33	5.2145259388968
6	38967	34	6.3683300680437
6	42842	35	7.7717622942139
6	46863	36	7.0501323819198
6	50931	37	2.2471122691915
6	55268	38	1.7542291671645
6	59894	39	2.3573505254715
6	64648	40	1.7648463676267
6	69426	41	2.031602944808
6	74553	42	2.3244584574801
6	80041	43	1.6146489515724
6	85822	44	2.0545569811991
6	91908	45	2.2938617998545
6	98391	46	1.7366674113137
6	104939	47	0.973
6	111815	48	0.973
6	119136	49	0.973
6	126890	50	0.973
6	134953	51	4.9477925655057
6	143353	52	5.1965580150963
6	152182	53	6.1745237790677
6	161340	54	8.202938287753
6	171039	55	8.996984776003
6	180762	56	0.973
6	191030	57	1.9815577447395
6	201775	58	1.6873896562769
6	212797	59	2.2487793733921
6	223883	60	1.8918972093834
6	235839	61	2.1079044473393
6	247571	62	1.8246614520554
6	259933	63	2.1214765442452
6	272695	64	2.2448393591743
6	285918	65	2.0901484826989
6	299698	66	1.7357704728348
6	314100	67	2.2348616223878
6	329316	68	2.0461355418744
6	344304	69	1.7430544722749
6	359567	70	2.2630012198936
6	375359	71	2.0389632678177
6	391834	72	1.8131420114661
6	408673	73	1.9094839888309
6	426036	74	0.973
6	443925	75	0.973
6	462049	76	1.5232633635055
6	480150	77	1.473750279449
6	499297	78	1.6399194057175
6	518819	79	3.4851739247189
6	538594	80	6.6809256685741
6	559615	81	0.973
6	581013	82	0.973
6	602483	83	0.973
6	624309	84	2.754121023491
6	646376	85	4.8860017368248
6	669628	86	5.9317680220069
6	692285	87	7.2780370090531
6	716202	88	8.8370927231914
5	98	3	1.8617354671541
5	154	4	2.0712639839365
5	255	5	0.59853790255643
5	381	6	-0.051705731775147
5	507	7	0.053295882393142
5	686	8	0.034845666459296
5	865	9	0.018080645033624
5	1044	10	0.014575973439495
5	1256	11	-0.10805799488909
5	1545	12	0.086337538252119
5	1883	13	0.015548781077378
5	2306	14	0.0027154454821705
5	2834	15	-0.099892161260358
5	3455	16	0.095100335881581
5	4190	17	-0.067761220268441
5	5057	18	0.058175631875638
5	6045	19	0.0082819770276554
5	7174	20	0.0055217267875545
5	8440	21	-1.6772233322224
5	9863	22	-2.5736998740347
5	11391	23	1.2012016854773
5	13116	24	1.8815247758548
5	14849	25	1.0737914979124
5	16687	26	0.021367453855929
5	18525	27	0.065015645793173
5	20777	28	-0.095208476667757
5	23266	29	-0.62571114684021
5	26012	30	-2.5977448597765
5	28931	31	-0.77474881315111
5	31996	32	2.369390871143
5	35337	33	1.802761044181
5	38967	34	1.8832047271007
5	42842	35	1.9952263550111
5	46863	36	1.5151881773565
5	50931	37	0.066952666928993
5	55268	38	-0.078766785894986
5	59894	39	0.099209747957065
5	64648	40	-0.076141591640189
5	69426	41	0.0039737944677469
5	74553	42	0.088759927148931
5	80041	43	-0.12071507329587
5	85822	44	0.011513577108271
5	91908	45	0.080650601515082
5	98391	46	-0.084133648632561
5	104939	47	-2.9382019616402
5	111815	48	-3.0891053068677
5	119136	49	-2.7067990826569
5	126890	50	-0.89350606439418
5	134953	51	2.2667508765077
5	143353	52	1.8304632125143
5	152182	53	1.8438464863179
5	161340	54	2.1477029074845
5	171039	55	2.0178629619488
5	180762	56	-0.37299564246561
5	191030	57	-0.013110124289524
5	201775	58	-0.098839738261887
5	212797	59	0.067933419186158
5	223883	60	-0.038037061516661
5	235839	61	0.026074444644618
5	247571	62	-0.057434045481495
5	259933	63	0.031009054908063
5	272695	64	0.065788394378032
5	285918	65	0.018892164514401
5	299698	66	-0.084969016620891
5	314100	67	0.062912717272994
5	329316	68	0.0062256205524314
5	344304	69	-0.082453937684186
5	359567	70	0.071504166394007
5	375359	71	0.0042840840690772
5	391834	72	-0.061721709012055
5	408673	73	-0.031858879188075
5	426036	74	-2.8769821027283
5	443925	75	-2.5956774425773
5	462049	76	-0.019201935261954
5	480150	77	-0.042809003130532
5	499297	78	0.03942089905031
5	518819	79	0.84852829545271
5	538594	80	1.8589840551349
5	559615	81	-1.5807530313638
5	581013	82	-2.9850459485973
5	602483	83	-2.5115173650341
5	624309	84	1.1424199405908
5	646376	85	2.0037245834642
5	669628	86	1.983706362755
5	692285	87	2.0600348359486
5	716202	88	2.153253119532
4	42	2	3.722822103166
4	98	3	5.58455757032
4	154	4	7.6558215542565
4	255	5	8.254359456813
4	381	6	8.2026537250378
4	507	7	8.255949607431
4	686	8	8.2907952738903
4	865	9	8.3088759189239
4	1044	10	8.3234518923634
4	1256	11	8.2153938974743
4	1545	12	8.3017314357264
4	1883	13	8.3172802168038
4	2306	14	8.3199956622859
4	2834	15	8.2201035010256
4	3455	16	8.3152038369072
4	4190	17	8.2474426166387
4	5057	18	8.3056182485144
4	6045	19	8.313900225542
4	7174	20	8.3194219523296
4	8440	21	6.6421986201072
4	9863	22	4.0684987460725
4	11391	23	5.2697004315498
4	13116	24	7.1512252074046
4	14849	25	8.225016705317
4	16687	26	8.2463841591729
4	18525	27	8.3113998049661
4	20777	28	8.2161913282983
4	23266	29	7.5904801814581
4	26012	30	4.9927353216816
4	28931	31	4.2179865085305
4	31996	32	6.5873773796735
4	35337	33	8.3901384238544
4	38967	34	10.273343150955
4	42842	35	12.268569505966
4	46863	36	13.783757683323
4	50931	37	13.850710350252
4	55268	38	13.771943564357
4	59894	39	13.871153312314
4	64648	40	13.795011720674
4	69426	41	13.798985515141
4	74553	42	13.88774544229
4	80041	43	13.767030368994
4	85822	44	13.778543946103
4	91908	45	13.859194547618
4	98391	46	13.775060898985
4	104939	47	10.836858937345
4	111815	48	7.7477536304773
4	119136	49	5.0409545478204
4	126890	50	4.1474484834262
4	134953	51	6.4141993599339
4	143353	52	8.2446625724482
4	152182	53	10.088509058766
4	161340	54	12.236211966251
4	171039	55	14.254074928199
4	180762	56	13.881079285734
4	191030	57	13.867969161444
4	201775	58	13.769129423182
4	212797	59	13.837062842369
4	223883	60	13.799025780852
4	235839	61	13.825100225497
4	247571	62	13.767666180015
4	259933	63	13.798675234923
4	272695	64	13.864463629301
4	285918	65	13.883355793816
4	299698	66	13.798386777195
4	314100	67	13.861299494468
4	329316	68	13.86752511502
4	344304	69	13.785071177336
4	359567	70	13.85657534373
4	375359	71	13.860859427799
4	391834	72	13.799137718787
4	408673	73	13.767278839599
4	426036	74	10.890296736871
4	443925	75	8.2946192942932
4	462049	76	8.2754173590313
4	480150	77	8.2326083559007
4	499297	78	8.272029254951
4	518819	79	9.1205575504038
4	538594	80	10.979541605539
4	559615	81	9.3987885741749
4	581013	82	6.4137426255776
4	602483	83	3.9022252605435
4	624309	84	5.0446452011343
4	646376	85	7.0483697845985
4	669628	86	9.0320761473536
4	692285	87	11.092110983302
4	716202	88	13.245364102834
1	11	1	581.62869891905
1	42	2	581.62869891905
1	98	3	578.8669235406
1	154	4	574.05430964491
1	255	5	567.3629427839
1	381	6	559.29369620892
1	507	7	551.47304732733
1	686	8	544.57837103313
1	865	9	538.65662631411
1	1044	10	534.17863040837
1	1256	11	530.36003618744
1	1545	12	526.75407784904
1	1883	13	523.80754385163
1	2306	14	523.14294771436
1	2834	15	520.94751082928
1	3455	16	518.70119354537
1	4190	17	516.45035864294
1	5057	18	514.20611500196
1	6045	19	512.10574883004
1	7174	20	510.12365381357
1	8440	21	508.14178010704
1	9863	22	506.29664679041
1	11391	23	505.05882268669
1	13116	24	504.04282559521
1	14849	25	506.09614018395
1	16687	26	513.92279068818
1	18525	27	521.99025914754
1	20777	28	530.06652131052
1	23266	29	538.11565176964
1	26012	30	546.07495982033
1	28931	31	552.06249334806
1	31996	32	555.96807718435
1	35337	33	561.43383371594
1	38967	34	568.87012853641
1	42842	35	578.07682868904
1	46863	36	589.26387047159
1	50931	37	602.32070703063
1	55268	38	615.95659435639
1	59894	39	629.52639505343
1	64648	40	643.14587131555
1	69426	41	656.72867090562
1	74553	42	670.22308932195
1	80041	43	683.71032104137
1	85822	44	697.18620080195
1	91908	45	710.68018645969
1	98391	46	724.22626333874
1	104939	47	738.0294341712
1	111815	48	750.38274848117
1	119136	49	759.51359257778
1	126890	50	765.71164442193
1	134953	51	769.73183011642
1	143353	52	775.13128329427
1	152182	53	780.04912434
1	161340	54	780.68334965876
1	171039	55	781.30031466355
1	180762	56	782.57948486785
1	191030	57	784.70774826397
1	201775	58	784.02504994829
1	212797	59	779.93350222007
1	223883	60	775.05847875958
1	235839	61	770.65115708161
1	247571	62	767.33316653973
1	259933	63	764.55167676058
1	272695	64	762.55099565046
1	285918	65	761.10502812428
1	299698	66	759.83258145907
1	314100	67	758.49542010857
1	329316	68	757.15948242994
1	344304	69	755.52248786264
1	359567	70	753.38039827496
1	375359	71	752.82800601804
1	391834	72	752.30974824057
1	408673	73	753.48004247946
1	426036	74	753.43135771169
1	443925	75	750.60772948075
1	462049	76	743.70724529179
1	480150	77	735.5149783523
1	499297	78	727.3355993988
1	518819	79	719.13316159924
1	538594	80	711.37917521094
1	559615	81	708.45246248776
1	581013	82	705.86961499962
1	602483	83	703.74878843134
1	624309	84	702.36980455707
1	646376	85	700.85611870404
1	669628	86	698.88728345406
1	692285	87	701.12106030833
1	716202	88	703.83763221742
0	11	1	777.89721483367
0	42	2	777.89721483367
0	98	3	776.8420118789
0	154	4	776.37926054278
0	255	5	776.2039702959
0	381	6	777.37412942811
0	507	7	779.98683373413
0	686	8	784.50768755105
0	865	9	790.20195065296
0	1044	10	797.12973669078
0	1256	11	804.46551976298
0	1545	12	811.90391807399
0	1883	13	819.63039826878
0	2306	14	827.63496187581
0	2834	15	835.61724955095
0	3455	16	843.55391137996
0	4190	17	851.50653480562
0	5057	18	859.43587006381
0	6045	19	867.42984061518
0	7174	20	875.45220832674
0	8440	21	883.4736803044
0	9863	22	890.94170672079
0	11391	23	895.95169869382
0	13116	24	900.06386395027
0	14849	25	905.0623885355
0	16687	26	906.78950680973
0	18525	27	908.56976673003
0	20777	28	910.35196716962
0	23266	29	912.12818041691
0	26012	30	913.88457242357
0	28931	31	915.20585009755
0	31996	32	916.06770092525
0	35337	33	917.24948344999
0	38967	34	918.80853664108
0	42842	35	920.65784784057
0	46863	36	922.90494194754
0	50931	37	925.30041797254
0	55268	38	927.76851357851
0	59894	39	930.21992651504
0	64648	40	932.53809976088
0	69426	41	935.15907447389
0	74553	42	938.12057880433
0	80041	43	941.19670038701
0	85822	44	944.27023285383
0	91908	45	947.34789485161
0	98391	46	950.03612072114
0	104939	47	950.74058176928
0	111815	48	950.83566844494
0	119136	49	950.89391099934
0	126890	50	950.9334462677
0	134953	51	950.95908966731
0	143353	52	950.43441748861
0	152182	53	943.74769706994
0	161340	54	934.55142994802
0	171039	55	923.26922453909
0	180762	56	910.04002915216
0	191030	57	896.38346998708
0	201775	58	882.72125355014
0	212797	59	869.57105786447
0	223883	60	856.63856319589
0	235839	61	843.57204657399
0	247571	62	830.15720443097
0	259933	63	816.62287886885
0	272695	64	802.93873307076
0	285918	65	789.17720350717
0	299698	66	775.39824843935
0	314100	67	761.63878426635
0	329316	68	747.89191174452
0	344304	69	734.15517185594
0	359567	70	720.49493920249
0	375359	71	706.72079183038
0	391834	72	693.19375191348
0	408673	73	679.42708540698
0	426036	74	665.57626897488
0	443925	75	653.76829199654
0	462049	76	648.55264671744
0	480150	77	647.38803176576
0	499297	78	646.24266096329
0	518819	79	645.17172496453
0	538594	80	646.63354399319
0	559615	81	656.32540560919
0	581013	82	666.63524773571
0	602483	83	674.02500280955
0	624309	84	678.82989974645
0	646376	85	682.51303189746
0	669628	86	679.00887706302
0	692285	87	671.22569770999
0	716202	88	661.43893877173
vector 375 Scenario.node[76].veinsmobility posx ETV
vector 376 Scenario.node[76].veinsmobility posy ETV
vector 377 Scenario.node[74].veinsmobility acceleration ETV
vector 378 Scenario.node[74].veinsmobility co2emission ETV
vector 379 Scenario.node[75].veinsmobility speed ETV
vector 380 Scenario.node[77].veinsmobility posx ETV
vector 381 Scenario.node[77].veinsmobility posy ETV
vector 382 Scenario.node[75].veinsmobility acceleration ETV
vector 383 Scenario.node[75].veinsmobility co2emission ETV
vector 384 Scenario.node[76].veinsmobility speed ETV
vector 385 Scenario.node[78].veinsmobility posx ETV
vector 386 Scenario.node[78].veinsmobility posy ETV
vector 387 Scenario.node[76].veinsmobility acceleration ETV
vector 388 Scenario.node[76].veinsmobility co2emission ETV
vector 389 Scenario.node[77].veinsmobility speed ETV
vector 390 Scenario.node[77].veinsmobility acceleration ETV
vector 391 Scenario.node[77].veinsmobility co2emission ETV
vector 392 Scenario.node[78].veinsmobility speed ETV
vector 393 Scenario.node[79].veinsmobility posx ETV
vector 394 Scenario.node[79].veinsmobility posy ETV
vector 395 Scenario.node[80].veinsmobility posx ETV
vector 396 Scenario.node[80].veinsmobility posy ETV
vector 397 Scenario.node[78].veinsmobility acceleration ETV
vector 398 Scenario.node[78].veinsmobility co2emission ETV
11	154	4	4.1011009089181
11	255	5	5.7264900094176
11	381	6	2.2043746974518
11	507	7	1.5239367743167
11	686	8	1.508010921998
11	865	9	1.446752044794
11	1044	10	1.7564075028699
11	1256	11	1.52209857656
11	1545	12	1.6261694753887
11	1883	13	1.3312908837731
11	2306	14	1.6593117859017
11	2834	15	1.5517288507345
11	3455	16	1.6229124361411
11	4190	17	1.6562538338808
11	5057	18	0.973
11	6045	19	0.973
11	7174	20	2.8051674553582
11	8440	21	0.973
11	9863	22	0.973
11	11391	23	5.3639443610548
11	13116	24	4.4694237429781
11	14849	25	0.973
11	16687	26	0.973
11	18525	27	5.109005343129
11	20777	28	5.3228989158316
11	23266	29	0.973
11	26012	30	0.973
11	28931	31	2.1244542127768
11	31996	32	4.8117198781368
11	35337	33	6.0746749426212
11	38967	34	6.8128553154629
11	42842	35	7.8405407949148
11	46863	36	5.491263051475
11	50931	37	2.0431498558818
11	55268	38	2.1256541929022
11	59894	39	1.9230635598167
11	64648	40	1.8065729203954
11	69426	41	1.9669678855813
11	74553	42	2.372670609014
11	80041	43	1.6703604292395
11	85822	44	2.3250273686633
11	91908	45	0.973
11	98391	46	0.973
11	104939	47	0.973
11	111815	48	0.973
11	119136	49	4.7035437478495
11	126890	50	4.8305747289682
11	134953	51	5.9968569305139
11	143353	52	7.3339208296857
11	152182	53	7.9262142844303
11	161340	54	3.5410811381273
11	171039	55	1.9411826487175
11	180762	56	2.1592705345011
11	191030	57	2.24046812426
11	201775	58	1.7217785888015
11	212797	59	2.1003659105516
11	223883	60	1.879391513657
11	235839	61	2.3823717155235
11	247571	62	1.7673054102227
11	259933	63	2.0528463355276
11	272695	64	2.0785835980563
11	285918	65	1.7786772815623
11	299698	66	2.3808271305506
11	314100	67	1.8372351658254
11	329316	68	2.2622868064806
11	344304	69	1.876738465693
11	359567	70	1.7528466403282
11	375359	71	2.2586600408677
11	391834	72	1.8405669984179
11	408673	73	2.1072352815576
11	426036	74	2.0035667909451
11	443925	75	2.2001784759875
11	462049	76	1.8730938362171
11	480150	77	1.9012466829337
11	499297	78	2.1414556724759
11	518819	79	1.9574008055779
11	538594	80	2.1016126976326
11	559615	81	1.8927284875317
11	581013	82	2.3842323866754
11	602483	83	0.973
11	624309	84	0.973
11	646376	85	0.973
11	669628	86	0.973
11	692285	87	0.973
11	716202	88	1.1259524755379
11	740425	89	0.973
11	764885	90	0.973
11	789763	91	2.4560485217632
11	812773	92	3.5946026469642
11	817157	93	4.1823634313375
10	154	4	1.9180378866778
10	255	5	2.1713119876292
10	381	6	0.31949533109306
10	507	7	-0.019475482527632
10	686	8	-0.026631741877646
10	865	9	-0.055871428952086
10	1044	10	0.09619396640919
10	1256	11	-0.020191988477018
10	1545	12	0.030757312304342
10	1883	13	-0.11406358856941
10	2306	14	0.049827921716496
10	2834	15	-0.0041125017707238
10	3455	16	0.030541289371904
10	4190	17	0.04546323373448
10	5057	18	-1.6687923692188
10	6045	19	-2.5710617556141
10	7174	20	1.1360816116281
10	8440	21	-0.19735741636232
10	9863	22	-0.83612196461249
10	11391	23	2.4439032908925
10	13116	24	1.490407742123
10	14849	25	-2.8416438149537
10	16687	26	-1.7110928677185
10	18525	27	2.5129762490559
10	20777	28	1.9507271286799
10	23266	29	-1.3418165903941
10	26012	30	-2.4811246267591
10	28931	31	0.65554973660363
10	31996	32	2.0138099538675
10	35337	33	2.0704025087832
10	38967	34	1.9292135029216
10	42842	35	1.9189111095015
10	46863	36	1.0399849988329
10	50931	37	0.0060020740283662
10	55268	38	0.029758433308452
10	59894	39	-0.029979811464436
10	64648	40	-0.063262749766
10	69426	41	-0.014547050262335
10	74553	42	0.10377876407932
10	80041	43	-0.10393622878473
10	85822	44	0.090039459727706
10	91908	45	-2.055218749274
10	98391	46	-3.2166555437729
10	104939	47	-2.9026451104861
10	111815	48	-2.2744904081834
10	119136	49	2.3682130461023
10	126890	50	1.8120590856089
10	134953	51	1.9018549879827
10	143353	52	1.997276018993
10	152182	53	1.8518178568385
10	161340	54	0.45795269281012
10	171039	55	-0.022534216765781
10	180762	56	0.041761197119486
10	191030	57	0.063904192992485
10	201775	58	-0.089021319730673
10	212797	59	0.024104125245941
10	223883	60	-0.041136299311184
10	235839	61	0.10631310195895
10	247571	62	-0.075663405684756
10	259933	63	0.0098522282927309
10	272695	64	0.017043233108707
10	285918	65	-0.071131990328432
10	299698	66	0.1063660797989
10	314100	67	-0.054837931585498
10	329316	68	0.070347145355772
10	344304	69	-0.043697119406424
10	359567	70	-0.078902741051278
10	375359	71	0.071088941597845
10	391834	72	-0.052933339083101
10	408673	73	0.026515119306277
10	426036	74	-0.0045086325542076
10	443925	75	0.05279658500338
10	462049	76	-0.043977024552877
10	480150	77	-0.034556086000521
10	499297	78	0.036590981294866
10	518819	79	-0.018176390444859
10	538594	80	0.024420302938669
10	559615	81	-0.037275816188194
10	581013	82	0.1066408280679
10	602483	83	-4.5
10	624309	84	-4.5
10	646376	85	-2.4094384992455
10	669628	86	-1.2629189543508
10	692285	87	-0.74033724372813
10	716202	88	-0.045819234783853
10	740425	89	-0.42866244999343
10	764885	90	0
10	789763	91	2.2644105213737
10	812773	92	2.1355270725817
10	817157	93	1.8309516640077
7	98	3	3.9055292412035
7	154	4	5.8235671278813
7	255	5	7.9948791155104
7	381	6	8.3143744466035
7	507	7	8.2948989640758
7	686	8	8.2682672221982
7	865	9	8.2123957932461
7	1044	10	8.3085897596553
7	1256	11	8.2883977711783
7	1545	12	8.3191550834826
7	1883	13	8.2050914949132
7	2306	14	8.2549194166297
7	2834	15	8.250806914859
7	3455	16	8.2813482042309
7	4190	17	8.3268114379654
7	5057	18	6.6580190687465
7	6045	19	4.0869573131324
7	7174	20	5.2230389247606
7	8440	21	5.0256815083982
7	9863	22	4.1895595437858
7	11391	23	6.6334628346782
7	13116	24	8.1238705768013
7	14849	25	5.2822267618476
7	16687	26	3.5711338941291
7	18525	27	6.084110143185
7	20777	28	8.0348372718649
7	23266	29	6.6930206814708
7	26012	30	4.2118960547117
7	28931	31	4.8674457913153
7	31996	32	6.8812557451828
7	35337	33	8.9516582539659
7	38967	34	10.880871756888
7	42842	35	12.799782866389
7	46863	36	13.839767865222
7	50931	37	13.84576993925
7	55268	38	13.875528372559
7	59894	39	13.845548561094
7	64648	40	13.782285811328
7	69426	41	13.767738761066
7	74553	42	13.871517525145
7	80041	43	13.767581296361
7	85822	44	13.857620756088
7	91908	45	11.802402006814
7	98391	46	8.5857464630415
7	104939	47	5.6831013525554
7	111815	48	3.408610944372
7	119136	49	5.7768239904743
7	126890	50	7.5888830760832
7	134953	51	9.4907380640659
7	143353	52	11.488014083059
7	152182	53	13.339831939897
7	161340	54	13.797784632707
7	171039	55	13.775250415942
7	180762	56	13.817011613061
7	191030	57	13.880915806054
7	201775	58	13.791894486323
7	212797	59	13.815998611569
7	223883	60	13.774862312258
7	235839	61	13.881175414217
7	247571	62	13.805512008532
7	259933	63	13.815364236825
7	272695	64	13.832407469933
7	285918	65	13.761275479605
7	299698	66	13.867641559404
7	314100	67	13.812803627818
7	329316	68	13.883150773174
7	344304	69	13.839453653768
7	359567	70	13.760550912716
7	375359	71	13.831639854314
7	391834	72	13.778706515231
7	408673	73	13.805221634537
7	426036	74	13.800713001983
7	443925	75	13.853509586987
7	462049	76	13.809532562434
7	480150	77	13.774976476433
7	499297	78	13.811567457728
7	518819	79	13.793391067283
7	538594	80	13.817811370222
7	559615	81	13.780535554034
7	581013	82	13.887176382102
7	602483	83	9.3871763821016
7	624309	84	4.8871763821016
7	646376	85	2.4777378828562
7	669628	86	1.2148189285054
7	692285	87	0.47448168477728
7	716202	88	0.42866244999343
7	740425	89	0
7	764885	90	0
7	789763	91	2.2644105213737
7	812773	92	4.3999375939554
7	817157	93	6.2308892579631
3	42	2	341.63802363794
3	98	3	341.63802363794
3	154	4	340.24876661398
3	255	5	338.03600582087
3	381	6	334.90645116914
3	507	7	331.18753250381
3	686	8	327.47779024671
3	865	9	323.7833923977
3	1044	10	320.08281406727
3	1256	11	316.38065675579
3	1545	12	311.75641816063
3	1883	13	303.70539547017
3	2306	14	295.61252213762
3	2834	15	287.50375833617
3	3455	16	279.40123866078
3	4190	17	271.30054858129
3	5057	18	263.20752994066
3	6045	19	255.64667701889
3	7174	20	250.55015178941
3	8440	21	246.42558845561
3	9863	22	240.85292953056
3	11391	23	236.93583581715
3	13116	24	231.48849750255
3	14849	25	228.6628592194
3	16687	26	227.26810174171
3	18525	27	226.39746404217
3	20777	28	226.18894220922
3	23266	29	226.837186494
3	26012	30	225.23937251735
3	28931	31	224.31266962573
3	31996	32	223.97212526171
3	35337	33	225.2019870862
3	38967	34	233.09706649543
3	42842	35	241.73944248315
3	46863	36	253.45603755211
3	50931	37	266.83036731295
3	55268	38	280.41455108259
3	59894	39	293.55396928464
3	64648	40	306.84180061103
3	69426	41	320.02862323714
3	74553	42	333.28578418845
3	80041	43	346.65949785089
3	85822	44	360.02781571836
3	91908	45	373.14144706428
3	98391	46	385.52364784774
3	104939	47	393.99475810047
3	111815	48	399.90370723362
3	119136	49	403.39546073739
3	126890	50	401.16024252193
3	134953	51	396.88668978041
3	143353	52	391.02308619758
3	152182	53	383.60169560628
3	161340	54	377.24101867441
3	171039	55	367.61849748939
3	180762	56	357.95930662386
3	191030	57	348.24905283899
3	201775	58	338.60051469885
3	212797	59	329.21702181203
3	223883	60	321.6881072243
3	235839	61	314.06974228849
3	247571	62	308.01914598006
3	259933	63	302.8161532544
3	272695	64	297.98550360057
3	285918	65	291.02020720109
3	299698	66	286.5604549876
3	314100	67	280.71684849493
3	329316	68	274.70751943971
3	344304	69	268.16596773197
3	359567	70	260.61536597721
3	375359	71	253.06605279924
3	391834	72	245.36642951068
3	408673	73	238.4310022213
3	426036	74	232.31524355093
3	443925	75	228.06097300828
3	462049	76	225.13225719382
3	480150	77	223.08812292612
3	499297	78	221.04444054057
3	518819	79	218.98704806381
3	538594	80	216.93577050759
3	559615	81	214.37421232862
3	581013	82	211.13747096461
3	602483	83	204.66794676629
3	624309	84	195.55985664494
3	646376	85	189.33357719486
3	669628	86	186.44638451036
3	692285	87	184.87493265023
3	716202	88	184.19887788336
3	740425	89	183.80411865561
3	764885	90	183.78977542362
3	789763	91	183.78977542362
3	812773	92	182.63354018939
3	817157	93	179.52407774903
2	42	2	276.48512775732
2	98	3	276.48512775732
2	154	4	279.25420712255
2	255	5	283.66470147079
2	381	6	289.90255743196
2	507	7	297.31513894827
2	686	8	304.70942996666
2	865	9	312.07313637538
2	1044	10	319.44916177424
2	1256	11	326.82833441206
2	1545	12	333.55527791685
2	1883	13	333.44635929944
2	2306	14	331.81822256002
2	2834	15	330.18688895155
2	3455	16	328.556811546
2	4190	17	326.92710222137
2	5057	18	325.29893624864
2	6045	19	323.77783219604
2	7174	20	322.75250538954
2	8440	21	321.92271937635
2	9863	22	320.73471943187
2	11391	23	319.85768317687
2	13116	24	319.31859564572
2	14849	25	326.22030585894
2	16687	26	332.62803907624
2	18525	27	336.62788435171
2	20777	28	341.39983727295
2	23266	29	348.37497071648
2	26012	30	355.92461515954
2	28931	31	360.86306418825
2	31996	32	364.84238814562
2	35337	33	370.43142395936
2	38967	34	372.01455812198
2	42842	35	380.29532565192
2	46863	36	382.43351375307
2	50931	37	384.87422563116
2	55268	38	387.35323424494
2	59894	39	390.41733023277
2	64648	40	394.19249468837
2	69426	41	395.94251070456
2	74553	42	398.01360378428
2	80041	43	401.55169554993
2	85822	44	405.08835982743
2	91908	45	409.44109187041
2	98391	46	413.71688037043
2	104939	47	418.85993356094
2	111815	48	422.53804209748
2	119136	49	424.93440304009
2	126890	50	428.9875037272
2	134953	51	434.11460187175
2	143353	52	440.32034032474
2	152182	53	447.83770052321
2	161340	54	459.09605659731
2	171039	55	468.98024895307
2	180762	56	478.87602930078
2	191030	57	488.71640373939
2	201775	58	498.62060799515
2	212797	59	508.71118948661
2	223883	60	519.54577816862
2	235839	61	530.66629341163
2	247571	62	542.7273845155
2	259933	63	555.15573019319
2	272695	64	568.23532203326
2	285918	65	580.61944672899
2	299698	66	593.63510219635
2	314100	67	606.18586841545
2	329316	68	618.80374742849
2	344304	69	631.14842893087
2	359567	70	642.72791650241
2	375359	71	654.29731661548
2	391834	72	665.7559433946
2	408673	73	677.4629085803
2	426036	74	689.64806283844
2	443925	75	702.73090836901
2	462049	76	716.16284130204
2	480150	77	729.74722665338
2	499297	78	743.32860900168
2	518819	79	756.97568853492
2	538594	80	770.6609160359
2	559615	81	784.3446967328
2	581013	82	798.20985214922
2	602483	83	810.66144557293
2	624309	84	818.07702721941
2	646376	85	821.32596637723
2	669628	86	822.7236716856
2	692285	87	823.48648060937
2	716202	88	823.81464886079
2	740425	89	824.00627156926
2	764885	90	824.01323401312
2	789763	91	824.01323401312
2	812773	92	824.56907062636
2	817157	93	826.07334433635
vector 399 Scenario.node[79].veinsmobility speed ETV
vector 400 Scenario.node[80].veinsmobility speed ETV
vector 401 Scenario.node[81].veinsmobility posx ETV
vector 402 Scenario.node[81].veinsmobility posy ETV
vector 403 Scenario.node[79].veinsmobility acceleration ETV
vector 404 Scenario.node[79].veinsmobility co2emission ETV
vector 405 Scenario.node[80].veinsmobility acceleration ETV
vector 406 Scenario.node[80].veinsmobility co2emission ETV
vector 407 Scenario.node[82].veinsmobility posx ETV
vector 408 Scenario.node[82].veinsmobility posy ETV
vector 409 Scenario.node[81].veinsmobility speed ETV
vector 410 Scenario.node[83].veinsmobility posx ETV
vector 411 Scenario.node[83].veinsmobility posy ETV
vector 412 Scenario.node[81].veinsmobility acceleration ETV
vector 413 Scenario.node[81].veinsmobility co2emission ETV
vector 414 Scenario.node[82].veinsmobility speed ETV
138	38967	34	3.8136020805288
138	42842	35	4.8317082978221
138	46863	36	6.4836438294098
138	50931	37	6.6347406564388
138	55268	38	8.1460251972049
138	59894	39	3.812179642691
138	64648	40	1.9713862624181
138	69426	41	1.8758421546958
138	74553	42	1.9558830597461
138	80041	43	2.2093322701131
138	85822	44	2.0979634507431
138	91908	45	1.8624424025637
138	98391	46	1.9946790851751
138	104939	47	1.9287309459362
138	111815	48	2.431509695207
138	119136	49	1.7763267883207
138	126890	50	1.9536334016154
138	134953	51	2.2972704067343
138	143353	52	1.9238223111891
138	152182	53	0.973
138	161340	54	0.973
138	171039	55	0.973
138	180762	56	0.973
138	191030	57	0.973
138	201775	58	3.5746979228308
138	212797	59	5.1215336680683
138	223883	60	5.7349747368866
138	235839	61	7.8575880487288
138	247571	62	7.8772280550469
138	259933	63	3.5532434853652
138	272695	64	1.9769218207909
138	285918	65	2.1854909552832
138	299698	66	2.1518931575406
138	314100	67	1.788294746996
138	329316	68	2.1840378493715
138	344304	69	0.973
138	359567	70	0.973
138	375359	71	0.973
138	391834	72	0.973
138	408673	73	0.973
138	426036	74	1.1917753033641
138	443925	75	3.6334219710828
138	462049	76	4.3132220564024
138	480150	77	0.973
138	499297	78	0.973
138	518819	79	4.0710538625933
138	538594	80	4.769127980894
138	559615	81	3.0077009301347
138	581013	82	3.5994108925336
138	602483	83	6.2929014471962
138	624309	84	8.7037946840103
138	646376	85	6.0863840556008
138	669628	86	1.9771657472809
138	692285	87	1.9232230233423
138	716202	88	2.1989775792818
138	740425	89	1.8573977526937
138	764885	90	0.973
138	789763	91	0.973
138	812773	92	0.973
138	817157	93	0.973
138	821666	94	2.7114171584594
138	826131	95	4.3751879508605
138	831078	96	6.6819851878606
138	836347	97	5.9485530873131
137	38967	34	1.7537401473313
137	42842	35	1.8280710104224
137	46863	36	2.0831069447496
137	50931	37	1.7644946983596
137	55268	38	1.9259811314917
137	59894	39	0.53634436931502
137	64648	40	-0.01498542180285
137	69426	41	-0.042497074517886
137	74553	42	-0.017885518753902
137	80041	43	0.056547163866925
137	85822	44	0.022402096986772
137	91908	45	-0.046912221862003
137	98391	46	-0.0069431393896231
137	104939	47	-0.026041787457652
137	111815	48	0.12075557034463
137	119136	49	-0.073172244690358
137	126890	50	-0.019354582908564
137	134953	51	0.081061891533901
137	143353	52	-0.029771657057573
137	152182	53	-2.6395645532782
137	161340	54	-2.2538936732328
137	171039	55	-0.33267346194398
137	180762	56	-2.3608537376101
137	191030	57	-2.4646357809572
137	201775	58	1.6624861140723
137	212797	59	2.0081782529922
137	223883	60	1.8310473766387
137	235839	61	2.1873749391478
137	247571	62	1.8393964968924
137	259933	63	0.46239568204054
137	272695	64	-0.011724956054239
137	285918	65	0.049425672169308
137	299698	66	0.038077244535089
137	314100	67	-0.06901846462395
137	329316	68	0.048397750831208
137	344304	69	-1.5901158561228
137	359567	70	-3.2884617623851
137	375359	71	-2.8130257969886
137	391834	72	-2.4994554489873
137	408673	73	-1.7358783320803
137	426036	74	-0.022152479109248
137	443925	75	2.2944558232906
137	462049	76	1.9511260261084
137	480150	77	-2.040012838799
137	499297	78	-1.8730547778736
137	518819	79	2.4309458056535
137	538594	80	2.0477967477962
137	559615	81	0.82424621605175
137	581013	82	0.98550071407059
137	602483	83	1.8367691487074
137	624309	84	2.2416199097037
137	646376	85	1.2216359945811
137	669628	86	-0.0124300000933
137	692285	87	-0.027860202712473
137	716202	88	0.053388621800114
137	740425	89	-0.047841569124721
137	764885	90	-0.41701668533516
137	789763	91	-1.8020717380673
137	812773	92	-1.4769229056913
137	817157	93	-0.30043905194519
137	821666	94	0.41189484018638
137	826131	95	0.96617971775273
137	831078	96	1.5561198001667
137	836347	97	1.1716273347979
134	35337	33	3.9512886100352
134	38967	34	5.7050287573664
134	42842	35	7.5330997677888
134	46863	36	9.6162067125384
134	50931	37	11.380701410898
134	55268	38	13.30668254239
134	59894	39	13.843026911705
134	64648	40	13.828041489902
134	69426	41	13.785544415384
134	74553	42	13.76765889663
134	80041	43	13.824206060497
134	85822	44	13.846608157484
134	91908	45	13.799695935622
134	98391	46	13.792752796232
134	104939	47	13.766711008775
134	111815	48	13.887466579119
134	119136	49	13.814294334429
134	126890	50	13.79493975152
134	134953	51	13.876001643054
134	143353	52	13.846229985997
134	152182	53	11.206665432718
134	161340	54	8.9527717594857
134	171039	55	8.6200982975417
134	180762	56	6.2592445599316
134	191030	57	3.7946087789744
134	201775	58	5.4570948930467
134	212797	59	7.4652731460389
134	223883	60	9.2963205226777
134	235839	61	11.483695461826
134	247571	62	13.323091958718
134	259933	63	13.785487640759
134	272695	64	13.773762684704
134	285918	65	13.823188356874
134	299698	66	13.861265601409
134	314100	67	13.792247136785
134	329316	68	13.840644887616
134	344304	69	12.250529031493
134	359567	70	8.962067269108
134	375359	71	6.1490414721194
134	391834	72	3.6495860231321
134	408673	73	1.9137076910518
134	426036	74	1.8915552119425
134	443925	75	4.1860110352332
134	462049	76	6.1371370613416
134	480150	77	4.0971242225425
134	499297	78	2.2240694446689
134	518819	79	4.6550152503224
134	538594	80	6.7028119981186
134	559615	81	7.5270582141704
134	581013	82	8.5125589282409
134	602483	83	10.349328076948
134	624309	84	12.590947986652
134	646376	85	13.812583981233
134	669628	86	13.80015398114
134	692285	87	13.772293778427
134	716202	88	13.825682400228
134	740425	89	13.777840831103
134	764885	90	13.360824145768
134	789763	91	11.5587524077
134	812773	92	10.081829502009
134	817157	93	9.7813904500639
134	821666	94	10.19328529025
134	826131	95	11.159465008003
[...]
136	1237571	160	422.47615981663
136	1244915	161	434.61742478165
136	1253066	162	445.14977193456
136	1261740	163	438.31433125981
135	38967	34	439.05925748642
135	42842	35	439.05925748642
135	46863	36	437.05165322299
135	50931	37	433.68629675121
135	55268	38	429.05724575319
135	59894	39	423.77118752926
135	64648	40	418.49712505077
135	69426	41	413.22236197845
135	74553	42	407.93692194048
135	80041	43	402.66676745775
135	85822	44	397.3247527055
135	91908	45	391.69082700019
135	98391	46	386.05487098407
135	104939	47	380.41294765333
135	111815	48	374.79344012615
135	119136	49	369.15077531596
135	126890	50	363.50306680285
135	134953	51	357.87885959348
135	143353	52	352.55737832629
135	152182	53	348.93719211146
135	161340	54	346.15860603069
135	171039	55	344.63671132047
135	180762	56	351.13650151647
135	191030	57	359.18517979575
135	201775	58	368.42680471993
135	212797	59	378.48013835608
135	223883	60	389.61564618062
135	235839	61	401.16371670127
135	247571	62	412.74076119103
135	259933	63	424.36937556891
135	272695	64	435.55551771145
135	285918	65	444.47372164404
135	299698	66	452.40013751649
135	314100	67	459.27162371558
135	329316	68	463.12194991967
135	344304	69	466.9633445532
135	359567	70	470.81138062363
135	375359	71	474.50919156068
135	391834	72	478.1115891855
135	408673	73	481.7133911329
135	426036	74	485.32069819731
135	443925	75	488.93227736883
135	462049	76	492.53020824113
135	480150	77	496.08512640821
135	499297	78	498.74650048183
135	518819	79	499.59092585991
135	538594	80	499.95652935392
135	559615	81	500.27646389544
135	581013	82	500.57426430223
135	602483	83	501.79182117192
135	624309	84	503.23721234087
135	646376	85	503.98640986409
135	669628	86	504.31171701561
135	692285	87	504.50523198924
135	716202	88	504.50787426311
135	740425	89	504.50787426311
135	764885	90	504.50787426311
135	789763	91	504.50787426311
135	812773	92	505.3421114021
135	817157	93	507.26140402463
135	821666	94	508.49145431147
135	826131	95	509.0338759642
135	831078	96	509.92068750958
135	836347	97	512.21426991198
135	841399	98	515.36129205669
135	846239	99	520.64658964795
135	851710	100	525.41370354635
135	856616	101	531.38077229032
135	862269	102	537.78256023967
135	868405	103	543.5548925675
135	873447	104	548.79200141645
135	878521	105	552.18719833938
135	883599	106	554.09300215959
135	889042	107	554.7639256351
135	894773	108	555.10496969343
135	901005	109	554.5776726896
135	906841	110	552.42290184119
135	912439	111	549.36769575042
135	917735	112	545.82447400885
135	923878	113	541.51123371094
135	929478	114	537.38966717814
135	935875	115	533.26907255917
135	942116	116	528.89313360289
135	947683	117	524.30410809984
135	952892	118	519.74018153679
135	958229	119	515.28810299986
135	964299	120	510.82845774347
135	970561	121	506.37173549437
135	976618	122	501.91500357897
135	981883	123	497.46231637217
135	987687	124	493.00368229648
135	993761	125	488.55371865734
135	999631	126	484.84610706116
135	1005428	127	486.57387853187
135	1011224	128	481.97968339955
135	1016790	129	477.38642350446
135	1022712	130	472.78758940904
135	1028723	131	468.18849537261
135	1034962	132	463.591130989
135	1041113	133	458.98917756708
135	1047112	134	454.39892876101
135	1053606	135	449.80165059565
135	1060150	136	445.24871104661
135	1066787	137	444.52496425673
135	1073561	138	454.37582358767
135	1080909	139	464.28099311317
135	1087775	140	474.19043525972
135	1094739	141	484.05046784328
135	1101708	142	493.89425692033
135	1108956	143	503.87546455399
135	1116321	144	514.05181487908
135	1123642	145	525.15722592591
135	1131283	146	536.9123253725
135	1138935	147	549.24995650517
135	1146072	148	561.92981289118
135	1153765	149	574.92591913432
135	1161041	150	578.47127335621
135	1168770	151	578.56288048713
135	1176169	152	578.97842200463
135	1183501	153	579.70903453285
135	1191486	154	581.01361044402
135	1199426	155	582.84604682729
135	1207239	156	584.35512741124
135	1215304	157	585.62303610203
135	1222872	158	586.73282609456
135	1229871	159	587.64834054224
135	1237571	160	592.19209791675
135	1244915	161	597.09315568164
135	1253066	162	604.59803988972
135	1261740	163	614.57692886405
256	247571	62	3.9337939218085
256	259933	63	4.8892484791803
256	272695	64	6.0407153134629
256	285918	65	6.259030422551
256	299698	66	7.7119637277074
256	314100	67	5.5367648099255
256	329316	68	2.1985010702439
256	344304	69	1.8581928547894
256	359567	70	2.116138911725
256	375359	71	0.973
256	391834	72	0.973
256	408673	73	0.973
256	426036	74	0.973
256	443925	75	0.973
256	462049	76	0.973
256	480150	77	0.973
256	499297	78	1.1806619108197
256	518819	79	2.741516838906
256	538594	80	3.7109199823056
256	559615	81	4.819261131993
256	581013	82	5.8383311406172
256	602483	83	6.7583976126363
256	624309	84	8.2929466334131
256	646376	85	5.3679389071694
256	669628	86	2.1013248679222
256	692285	87	1.8558009725633
256	716202	88	1.8355210918668
256	740425	89	2.0074533195898
256	764885	90	2.2159756712148
256	789763	91	2.1356367467447
256	812773	92	1.9945409923607
256	817157	93	1.9977946020578
256	821666	94	2.157833717993
256	826131	95	1.8878711235704
256	831078	96	1.8394368017008
256	836347	97	2.0632151517329
256	841399	98	2.0204661794033
256	846239	99	0.973
256	851710	100	0.973
256	856616	101	0.973
256	862269	102	0.973
256	868405	103	4.5418283659309
256	873447	104	5.1755735017763
256	878521	105	6.4909062054072
256	883599	106	7.3555318127295
256	889042	107	8.7208771653493
256	894773	108	2.0684954666428
256	901005	109	1.8987600839614
256	906841	110	2.1263660451879
256	912439	111	0.973
256	917735	112	0.973
256	923878	113	1.7115042550977
256	929478	114	1.5330265509737
256	935875	115	1.5609661159553
256	942116	116	1.5047459611267
256	947683	117	1.5990146111332
256	952892	118	0.973
256	958229	119	0.973
256	964299	120	0.973
256	970561	121	5.0626260926594
256	976618	122	5.0230674808349
256	981883	123	1.693101588193
256	987687	124	1.4275048971396
256	993761	125	1.5586766587188
256	999631	126	1.6932316823345
256	1005428	127	1.5287107001059
256	1011224	128	1.6193676109853
256	1016790	129	1.5035314311738
256	1022712	130	1.6159569896266
256	1028723	131	1.5433125826564
256	1034962	132	1.3871769948385
256	1041113	133	1.7788721484802
256	1047112	134	1.4651950543512
256	1053606	135	1.5875897860838
256	1060150	136	0.973
256	1066787	137	0.973
256	1073561	138	4.9610937764969
256	1080909	139	0.973
256	1087775	140	0.973
256	1094739	141	5.1990672854694
256	1101708	142	5.8302497132104
256	1108956	143	6.9452826324027
256	1116321	144	7.9965416205684
256	1123642	145	5.8921431748466
256	1131283	146	1.9262838830092
256	1138935	147	1.8724119611127
256	1146072	148	1.9597025248461
256	1153765	149	2.2456657365824
256	1161041	150	2.0557758028884
256	1168770	151	1.8476011039294
256	1176169	152	2.2409426108163
256	1183501	153	1.7288926072244
256	1191486	154	2.0099193305617
256	1199426	155	2.2240302590101
256	1207239	156	1.7949327663918
256	1215304	157	2.303531651932
256	1222872	158	1.8188975730486
256	1229871	159	2.0441016466877
256	1237571	160	1.8976886398406
256	1244915	161	2.1651663563431
256	1253066	162	1.9807026816248
256	1261740	163	2.1861201035454
255	247571	62	2.1047129697027
255	259933	63	2.0009638226335
255	272695	64	2.0205707239336
255	285918	65	1.7306752658891
255	299698	66	1.8936176009616
255	314100	67	1.0611962606207
255	329316	68	0.053358993197325
255	344304	69	-0.047521567526273
255	359567	70	0.029228431622032
255	375359	71	-0.29298413557936
255	391834	72	-3.4043074312461
255	408673	73	-3.0274421646544
255	426036	74	-2.5509034490495
255	443925	75	-2.0161714578841
255	462049	76	-1.3692235197769
255	480150	77	-0.6771581681025
255	499297	78	0.22440410724745
255	518819	79	2.166456541301
255	538594	80	2.0088307373133
255	559615	81	2.0176920753601
255	581013	82	1.9826343946299
255	602483	83	1.9267793501914
255	624309	84	2.0561907359469
255	646376	85	1.001881131379
255	669628	86	0.022553927488625
255	692285	87	-0.049554262792226
255	716202	88	-0.054210766977631
255	740425	89	-0.0023295719432639
255	764885	90	0.058489339912775
255	789763	91	0.03328547064215
255	812773	92	-0.0086998045071969
255	817157	93	-0.0075013066758398
255	821666	94	0.039167985771783
255	826131	95	-0.040416598727461
255	831078	96	-0.053520478338468
255	836347	97	0.013403225550427
255	841399	98	0.00053455211455145
255	846239	99	-1.6512469495783
255	851710	100	-3.1773591263345
255	856616	101	-2.9570801625898
255	862269	102	-2.3911191949243
255	868405	103	2.2220662550994
255	873447	104	1.9422651005839
255	878521	105	2.0353760381881
255	883599	106	1.9479680816829
255	889042	107	2.0170563044748
255	894773	108	0.014885478980419
255	901005	109	-0.035155950672925
255	906841	110	0.032371076489799
255	912439	111	-2.3326718421676
255	917735	112	-3.2167789328494
255	923878	113	0.073047505395952
255	929478	114	-0.015414444319903
255	935875	115	-0.0014164357585837
255	942116	116	-0.028629043640104
255	947683	117	0.017966595967302
255	952892	118	-0.68027112323736
255	958229	119	-2.6709600089454
255	964299	120	-0.74878045832458
255	970561	121	2.3054675942473
255	976618	122	1.7427491179179
255	981883	123	0.064487744371872
255	987687	124	-0.06641983231064
255	993761	125	-0.00038814714876878
255	999631	126	0.06464239097666
255	1005428	127	-0.016984085685108
255	1011224	128	0.027370388857088
255	1016790	129	-0.029519811482169
255	1022712	130	0.025805633259006
255	1028723	131	-0.010116520577576
255	1034962	132	-0.086127333007752
255	1041113	133	0.10661914108787
255	1047112	134	-0.048370211960282
255	1053606	135	0.012543904266785
255	1060150	136	-2.5392262598966
255	1066787	137	-2.4112246003217
255	1073561	138	2.5158247633395
255	1080909	139	-1.1911787111707
255	1087775	140	-0.26081065607916
255	1094739	141	2.3099800374499
255	1101708	142	2.0147106446745
255	1108956	143	2.010431008304
255	1116321	144	1.9838560129632
255	1123642	145	1.1558172620439
255	1131283	146	-0.029109664745629
255	1138935	147	-0.044054679789115
255	1146072	148	-0.017313584741204
255	1153765	149	0.066405583808663
255	1161041	150	0.0092447637231086
255	1168770	151	-0.051689250585623
255	1176169	152	0.064227668507957
255	1183501	153	-0.086809345744552
255	1191486	154	-0.0021766827581438
255	1199426	155	0.060169720873237
255	1207239	156	-0.06671386525035
255	1215304	157	0.083385981339962
255	1222872	158	-0.060103982323781
255	1229871	159	0.0073654951411299
255	1237571	160	-0.035634338697418
255	1244915	161	0.043475658467505
255	1253066	162	-0.011572126981337
255	1261740	163	0.048514092061668
251	235839	61	2.9572746262179
251	247571	62	5.0619875959206
251	259933	63	7.0629514185541
251	272695	64	9.0835221424877
251	285918	65	10.814197408377
251	299698	66	12.707815009338
251	314100	67	13.769011269959
251	329316	68	13.822370263156
251	344304	69	13.77484869563
251	359567	70	13.804077127252
251	375359	71	13.511092991673
251	391834	72	10.106785560427
251	408673	73	7.0793433957724
251	426036	74	4.5284399467229
251	443925	75	2.5122684888389
251	462049	76	1.143044969062
251	480150	77	0.4658868009595
251	499297	78	0.69029090820695
251	518819	79	2.8567474495079
251	538594	80	4.8655781868212
251	559615	81	6.8832702621813
251	581013	82	8.8659046568111
251	602483	83	10.792684007002
251	624309	84	12.848874742949
251	646376	85	13.850755874328
251	669628	86	13.873309801817
251	692285	87	13.823755539025
251	716202	88	13.769544772047
251	740425	89	13.767215200104
251	764885	90	13.825704540017
251	789763	91	13.858990010659
251	812773	92	13.850290206152
251	817157	93	13.842788899476
251	821666	94	13.881956885247
251	826131	95	13.84154028652
251	831078	96	13.788019808182
251	836347	97	13.801423033732
251	841399	98	13.801957585847
251	846239	99	12.150710636268
251	851710	100	8.9733515099338
251	856616	101	6.016271347344
251	862269	102	3.6251521524197
251	868405	103	5.8472184075191
251	873447	104	7.789483508103
251	878521	105	9.8248595462911
251	883599	106	11.772827627974
251	889042	107	13.789883932449
251	894773	108	13.804769411429
251	901005	109	13.769613460756
251	906841	110	13.801984537246
251	912439	111	11.469312695079
251	917735	112	8.2525337622291
251	923878	113	8.3255812676251
251	929478	114	8.3101668233052
251	935875	115	8.3087503875466
251	942116	116	8.2801213439065
251	947683	117	8.2980879398738
251	952892	118	7.6178168166364
251	958229	119	4.946856807691
251	964299	120	4.1980763493664
251	970561	121	6.5035439436138
251	976618	122	8.2462930615316
251	981883	123	8.3107808059035
251	987687	124	8.2443609735928
251	993761	125	8.2439728264441
251	999631	126	8.3086152174207
251	1005428	127	8.2916311317356
251	1011224	128	8.3190015205927
251	1016790	129	8.2894817091106
251	1022712	130	8.3152873423696
251	1028723	131	8.305170821792
251	1034962	132	8.2190434887842
251	1041113	133	8.3256626298721
251	1047112	134	8.2772924179118
251	1053606	135	8.2898363221786
251	1060150	136	5.750610062282
251	1066787	137	3.3393854619603
251	1073561	138	5.8552102252998
251	1080909	139	4.6640315141291
251	1087775	140	4.4032208580499
251	1094739	141	6.7132008954998
251	1101708	142	8.7279115401742
251	1108956	143	10.738342548478
251	1116321	144	12.722198561441
251	1123642	145	13.878015823485
251	1131283	146	13.84890615874
251	1138935	147	13.804851478951
251	1146072	148	13.787537894209
251	1153765	149	13.853943478018
251	1161041	150	13.863188241741
251	1168770	151	13.811498991156
251	1176169	152	13.875726659663
251	1183501	153	13.788917313919
251	1191486	154	13.786740631161
251	1199426	155	13.846910352034
251	1207239	156	13.780196486784
251	1215304	157	13.863582468124
251	1222872	158	13.8034784858
251	1229871	159	13.810843980941
251	1237571	160	13.775209642244
251	1244915	161	13.818685300711
251	1253066	162	13.80711317373
251	1261740	163	13.855627265791
244	223883	60	827.14384764228
244	235839	61	827.14384764228
244	247571	62	826.25633277383
244	259933	63	824.41873875028
244	272695	64	821.66135106566
244	285918	65	817.99186329655
244	299698	66	813.16017172446
244	314100	67	806.92334585541
244	329316	68	799.78673320149
244	344304	69	792.52189561625
244	359567	70	785.26901849252
244	375359	71	778.00873911924
244	391834	72	768.68565972902
244	408673	73	758.49858688192
244	426036	74	751.11721229272
244	443925	75	746.18194142927
244	462049	76	743.28232615749
244	480150	77	742.0112303985
244	499297	78	741.80241426347
244	518819	79	741.72183300896
244	538594	80	741.89018348836
244	559615	81	743.21708871488
244	581013	82	745.70455032071
244	602483	83	748.96708400656
244	624309	84	753.05350809433
244	646376	85	757.96359229061
244	669628	86	763.57892237357
244	692285	87	769.27783914181
244	716202	88	774.96072407061
244	740425	89	780.6515879215
244	764885	90	786.34959496925
244	789763	91	792.03826546394
244	812773	92	797.72873028374
244	817157	93	803.37401455243
244	821666	94	798.56322148188
244	826131	95	790.56542029422
244	831078	96	783.01694825059
244	836347	97	776.5574394056
244	841399	98	770.09445676583
244	846239	99	763.33811725148
244	851710	100	756.65127167957
244	856616	101	751.44728631367
244	862269	102	747.77455335034
244	868405	103	745.4284210233
244	873447	104	743.08564503254
244	878521	105	739.5841552503
244	883599	106	735.11121858411
244	889042	107	729.64568017834
244	894773	108	723.2038690421
244	901005	109	716.27069828205
244	906841	110	714.35525588473
244	912439	111	706.82359329063
244	917735	112	699.10015927947
244	923878	113	691.86793378522
244	929478	114	685.7264440332
244	935875	115	679.58213640405
244	942116	116	673.44037944371
244	947683	117	667.30745122397
244	952892	118	661.2977677956
244	958229	119	655.40723928654
244	964299	120	651.00847276977
244	970561	121	648.13069093779
244	976618	122	644.11691076096
244	981883	123	638.6258532869
244	987687	124	632.55029461424
244	993761	125	626.46731494267
244	999631	126	620.35304246043
244	1005428	127	614.23176342231
244	1011224	128	608.09772804172
244	1016790	129	601.96928189275
244	1022712	130	595.84826013521
244	1028723	131	589.71501498168
244	1034962	132	583.57015083564
244	1041113	133	577.44555192208
244	1047112	134	571.32226209719
244	1053606	135	565.18878622751
244	1060150	136	559.05037810892
244	1066787	137	553.87202330795
244	1073561	138	550.60779522057
244	1080909	139	547.07793526307
244	1087775	140	543.97309683508
244	1094739	141	542.46851327339
244	1101708	142	540.92180463928
244	1108956	143	543.67891028673
244	1116321	144	549.2489812843
244	1123642	145	555.97916345672
244	1131283	146	563.67045329672
244	1138935	147	571.50917187156
244	1146072	148	579.33122786031
244	1153765	149	587.16145367613
244	1161041	150	594.97334635575
244	1168770	151	602.7797305199
244	1176169	152	610.57659323515
244	1183501	153	618.37988650894
244	1191486	154	626.17479352727
244	1199426	155	633.97054081156
244	1207239	156	641.8390421791
244	1215304	157	650.21144955016
244	1222872	158	658.58488901896
244	1229871	159	666.96702010224
244	1237571	160	674.8342189684
244	1244915	161	682.47271315996
244	1253066	162	689.61597805538
244	1261740	163	696.25539701683
243	223883	60	364.41237953694
243	235839	61	364.41237953694
243	247571	62	366.17990386268
243	259933	63	369.83955200261
243	272695	64	375.33100908277
243	285918	65	382.63895301194
243	299698	66	391.46481527212
243	314100	67	401.57454649355
243	329316	68	413.14280850335
243	344304	69	424.91891976512
243	359567	70	436.67564343235
243	375359	71	448.44436595203
243	391834	72	456.50730652342
243	408673	73	450.93404115341
243	426036	74	446.89575066521
243	443925	75	444.19570379132
243	462049	76	442.6093476689
243	480150	77	441.52622951754
243	499297	78	440.85016603781
243	518819	79	440.38788410405
243	538594	80	438.51229356598
243	559615	81	434.7750740891
243	581013	82	429.26771347957
243	602483	83	422.04430570251
243	624309	84	412.9967646261
243	646376	85	402.12560013107
243	669628	86	389.69298704637
243	692285	87	377.07530898742
243	716202	88	364.49312619836
243	740425	89	351.89327768892
243	764885	90	339.27761379524
243	789763	91	326.68262148277
243	812773	92	314.08365644751
243	817157	93	301.46760314701
243	821666	94	289.31998592192
243	826131	95	278.0144521443
243	831078	96	266.45734334509
243	836347	97	254.22938752265
243	841399	98	241.99930549159
243	846239	99	229.93452807436
243	851710	100	218.38046765087
243	856616	101	209.38861032232
243	862269	102	203.04257195172
243	868405	103	198.98873903804
243	873447	104	194.94070546753
243	878521	105	188.89545262456
243	883599	106	181.18367041382
243	889042	107	171.76054529596
243	894773	108	160.65423008678
243	901005	109	148.70076261751
243	906841	110	135.55177926717
243	912439	111	124.22558882494
243	917735	112	113.66379281468
243	923878	113	114.23847772286
243	929478	114	119.78900279322
243	935875	115	125.34565872418
243	942116	116	130.9000079365
243	947683	117	136.4463728035
243	952892	118	142.12419594198
243	958229	119	147.79266683022
243	964299	120	152.02561127759
243	970561	121	154.79490821116
243	976618	122	158.62970945838
243	981883	123	163.77117038333
243	987687	124	169.39896982995
243	993761	125	175.03113864896
243	999631	126	180.56997115109
243	1005428	127	186.11515079256
243	1011224	128	191.67188622328
243	1016790	129	197.22355844855
243	1022712	130	202.7685050232
243	1028723	131	208.3225147687
243	1034962	132	213.88561236052
243	1041113	133	219.4341591702
243	1047112	134	224.98152001816
243	1053606	135	230.53810885756
243	1060150	136	236.09916604082
243	1066787	137	240.79046818416
243	1073561	138	243.74767772488
243	1080909	139	246.94205785002
243	1087775	140	251.63909048709
243	1094739	141	255.29869236003
243	1101708	142	260.81330708665
243	1108956	143	267.83913793117
243	1116321	144	275.94770803649
243	1123642	145	285.74509733195
243	1131283	146	296.94160863229
243	1138935	147	308.35273770545
243	1146072	148	319.73961040063
243	1153765	149	331.13837623247
243	1161041	150	342.55614606929
243	1168770	151	353.97770451269
243	1176169	152	365.38533207812
243	1183501	153	376.80236822487
243	1191486	154	388.20713440068
243	1199426	155	399.61312997368
243	1207239	156	410.86128738191
243	1215304	157	421.92785072668
243	1222872	158	432.98236614696
243	1229871	159	444.04835613353
243	1237571	160	455.45268831614
243	1244915	161	467.04582388753
243	1253066	162	478.93941497946
243	1261740	163	491.10798191525
